      Date: 11/27/2021      Time: 19:19:08  

     ___________________________________________________
     |                                                 |
     |  Livermore  Software  Technology  Corporation   |
     |                                                 |
     |  7374 Las Positas Road                          |
     |  Livermore, CA 94551                            |
     |  Tel: (925) 449-2500  Fax: (925) 449-2507       |
     |  www.lstc.com                                   |
     |_________________________________________________|
     |                                                 |
     |  LS-DYNA, A Program for Nonlinear Dynamic       |
     |  Analysis of Structures in Three Dimensions     |
     |  Version : mpp d R11.1.0   Date: 07/27/2019     |
     |  Revision: 139235          Time: 10:15:41       |
     |                                                 |
     |  Features enabled in this version:              |
     |    Distributed Memory Parallel                  |
     |    CESE CHEMISTRY EM ICFD STOCHASTIC_PARTICLES  |
     |    BigID  option                                |
     |                                                 |
     |  Licensed to: Institut fuer Flugzeugbau -- 10856|
     |  Issued by  : dynamore_11192021                 |
     |  Educational license                            |
     |                                                 |
     |  Platform   : WINX64 (Microsoft MPI V8.1.1)     |
     |  OS Level   : Windows 7/8/10 & Server 2008/2012 |
     |  Compiler   : Intel Fortran XE 2016 MSVC++ 2010 |
     |  Hostname   : Studpool20                        |
     |  Precision  : Double precision (I8R8)           |
     |  SVN Version: 139235                            |
     |                                                 |
     |  Unauthorized use infringes LSTC copyrights     |
     |_________________________________________________|


 Input file: H:\Simolation\onecaseImplicit20ms10mm0.2ms\Implicit.k                           

 The native file format       : 64-bit small endian
 Memory size from command line:    20000000,            0
 Memory size from command line:    20000000,     20000000

 ********  notice  ********  notice  ********  notice  ********
 *                                                            *
 * This is the LS-DYNA Finite Element code.                   *
 *                                                            *
 * Neither LSTC nor the authors assume any responsibility for *
 * the validity, accuracy, or applicability of any results    *
 * obtained from this system. Users must verify their own     *
 * results.                                                   *
 *                                                            *
 * LSTC endeavors to make the LS-DYNA code as complete,       *
 * accurate and easy to use as possible.                      *
 * Suggestions and comments are welcomed.  Please report any  *
 * errors encountered in either the documentation or results  *
 * immediately to LSTC through your site focus.               *
 *                                                            *
 * Copyright (C) 1990-2018                                    *
 * by Livermore Software Technology Corp. (LSTC)              *
 * All rights reserved                                        *
 *                                                            *
 ********  notice  ********  notice  ********  notice  ********

 Beginning of keyword reader                                   11/27/21 19:19:08

********** echo of pfile data **********


*********** end of pfile data **********


         **            ******  **********    *******                            
         **           *******  **********   ********                            
         **          **            **      ***                                  
         **           *******      **      **                                   
         **                 **     **      ***                                  
         *********   ********      **       ********                            
         *********   ******        **         ******                            
                                                                                
                                                                                
**           ******    *******    **    **  *      **    *****                  
**          *******    ********   **    **  **     **   *******                 
**         **          **   ***   **    **  ***    **  ***   ***                
**           **        **   ***   **    **  ***    **  ***   ***                
**             **   ** **    **     ****    ** **  **  *********                
**               **    **   ***      **     **    ***  **     **                
**               **    **   ***      **     **    ***  **     **                
*********  *******     *******       **     **     **  **     **                
*********  *******     ******        **     **      *  **     **                

            L I S T   O F   K E Y W O R D   C O U N T S   

total # of *AIRBAG_option..........................       0
total # of *AIRBAG_INTERACTION.....................       0
total # of *AIRBAG_PARTICLE........................       0
total # of *AIRBAG_REFERENCE_GEOMETRY..............       0
total # of *AIRBAG_SHELL_REFERENCE_GEOMETRY........       0
total # of *ALE_AMBIENT_HYDROSTATIC................       0
total # of *ALE_COUPLING_NODAL.....................       0
total # of *ALE_ELEMENT_POROSITY...................       0
total # of *ALE_FAIL_SWITCH_MMG....................       0
total # of *ALE_FRAGMENTATION......................       0
total # of *ALE_FSI_SWITCH_MMG.....................       0
total # of *ALE_REFERENCE_SYSTEM_GROUP.............       0
total # of *ALE_SWITCH_MMG.........................       0
total # of *BOUNDARY_ACOUSTIC_COUPLING.............       0
total # of *BOUNDARY_ACOUSTIC_COUPLING_MISMATCH....       0
total # of *BOUNDARY_ACOUSTIC_MAPPING..............       0
total # of *BOUNDARY_AEROHEATING_SEGMENT...........       0
total # of *BOUNDARY_ALE_MIXING_LENGTH.............       0
total # of *BOUNDARY_AMBIENT.......................       0
total # of *BOUNDARY_CONVECTION_SEGMENT............       0
total # of *BOUNDARY_CONVECTION_SET................       0
total # of *BOUNDARY_CYCLIC........................       0
total # of *BOUNDARY_DE_NON_REFLECTING.............       0
total # of *BOUNDARY_ELEMENT_METHOD_FLOW...........       0
total # of *BOUNDARY_ELEMENT_METHOD_CONTROL........       0
total # of *BOUNDARY_ELEMENT_METHOD_NEIGHBOR.......       0
total # of *BOUNDARY_ELEMENT_METHOD_WAKE...........       0
total # of *BOUNDARY_ELEMENT_METHOD_SYMMETRY.......       0
total # of *BOUNDARY_FIRE_SEGMENT..................       0
total # of *BOUNDARY_FLUX_SEGMENT..................       0
total # of *BOUNDARY_FLUX_SET......................       0
total # of *BOUNDARY_NON_REFLECTING................       0
total # of *BOUNDARY_MCOL..........................       0
total # of *BOUNDARY_PORE_FLUID ...................       0
total # of *BOUNDARY_PRESCRIBED_MOTION_NODE.+RIGID.       0
total # of *BOUNDARY_PRESCRIBED_FINAL_GEOMETRY.....       0
total # of *BOUNDARY_PRESCRIBED_MOTION_SET.........       1
total # of *BOUNDARY_PRESCRIBED_ORIENTATION........       0
total # of *BOUNDARY_PRESCRIBED_ACCELEROMETER......       0
total # of *BOUNDARY_PRESSURE_OUTFLOW_SEGMENT......       0
total # of *BOUNDARY_PRESSURE_OUTFLOW_SET..........       0
total # of *BOUNDARY_PWP_OPTION ...................       0
total # of *BOUNDARY_RADIATION_SEGMENT.(Type 1)....       0
total # of *BOUNDARY_RADIATION_SET.................       0
total # of *BOUNDARY_RADIATION_SEGMENT.(Type 2)....       0
total # of *BOUNDARY_RADIATION_SET.(Type 2)........       0
total # of *BOUNDARY_SLIDING_PLANE.................       0
total # of *BOUNDARY_SPC_NODE......................       0
total # of *BOUNDARY_SPC_SET.......................       2
total # of *BOUNDARY_SPH_FLOW......................       0
total # of *BOUNDARY_SPH_SYMMETRY_PLANE............       0
total # of *BOUNDARY_SYMMETRY_FAILURE..............       0
total # of *BOUNDARY_TEMPERATURE_NODE..............       0
total # of *BOUNDARY_TEMPERATURE_SET...............       0
total # of *BOUNDARY_THERMAL_BULKFLOW_SET..........       0
total # of *BOUNDARY_THERMAL_BULKFLOW_ELEMENT......       0
total # of *BOUNDARY_THERMAL_BULKNODE..............       0
total # of *BOUNDARY_THERMAL_WELD..................       0
total # of *BOUNDARY_USA...........................       0
total # of *BOUNDARY_PZEPOT........................       0
total # of *LOAD_PZECHARGE ........................       0
total # of *CESE_BOUNDARY_AXISYMMETRIC_PART........       0
total # of *CESE_BOUNDARY_AXISYMMETRIC_PART_SET....       0
total # of *CESE_BOUNDARY_AXISYMMETRIC_SEGMENT.....       0
total # of *CESE_BOUNDARY_AXISYMMETRIC_SET.........       0
total # of *CESE_BOUNDARY_CONJ_HEAT_PART...........       0
total # of *CESE_BOUNDARY_CONJ_HEAT_PART_SET.......       0
total # of *CESE_BOUNDARY_CONJ_HEAT_SEGMENT........       0
total # of *CESE_BOUNDARY_CONJ_HEAT_SET............       0
total # of *CESE_BOUNDARY_CYCLIC_PART..............       0
total # of *CESE_BOUNDARY_CYCLIC_PART_SET..........       0
total # of *CESE_BOUNDARY_CYCLIC_SEGMENT...........       0
total # of *CESE_BOUNDARY_CYCLIC_SET...............       0
total # of *CESE_BOUNDARY_FSI_PART.................       0
total # of *CESE_BOUNDARY_FSI_PART_SET.............       0
total # of *CESE_BOUNDARY_FSI_SEGMENT..............       0
total # of *CESE_BOUNDARY_FSI_SET..................       0
total # of *CESE_BOUNDARY_NON_REFLECTIVE_PART......       0
total # of *CESE_BOUNDARY_NON_REFLECTIVE_PART_SET..       0
total # of *CESE_BOUNDARY_NON_REFLECTIVE_SEGMENT...       0
total # of *CESE_BOUNDARY_NON_REFLECTIVE_SET.......       0
total # of *CESE_BOUNDARY_PRESCRIBED_PART..........       0
total # of *CESE_BOUNDARY_PRESCRIBED_PART_SET......       0
total # of *CESE_BOUNDARY_PRESCRIBED_SEGMENT.......       0
total # of *CESE_BOUNDARY_PRESCRIBED_SET...........       0
total # of *CESE_BOUNDARY_REFLECTIVE_PART..........       0
total # of *CESE_BOUNDARY_REFLECTIVE_PART_SET......       0
total # of *CESE_BOUNDARY_REFLECTIVE_SEGMENT.......       0
total # of *CESE_BOUNDARY_REFLECTIVE_SET...........       0
total # of *CESE_BOUNDARY_SLIDING_PART.............       0
total # of *CESE_BOUNDARY_SLIDING_PART_SET.........       0
total # of *CESE_BOUNDARY_SLIDING_SEGMENT..........       0
total # of *CESE_BOUNDARY_SLIDING_SET..............       0
total # of *CESE_BOUNDARY_SOLID_WALL_PART..........       0
total # of *CESE_BOUNDARY_SOLID_WALL_PART_SET......       0
total # of *CESE_BOUNDARY_SOLID_WALL_SEGMENT.......       0
total # of *CESE_BOUNDARY_SOLID_WALL_SET...........       0
total # of *CESE_CHEMISTRY_D3PLOT..................       0
total # of *CESE_CONTROL_SOLVER....................       0
total # of *CESE_CONTROL_TIMESTEP..................       0
total # of *CESE_CONTROL_LIMITER...................       0
total # of *CESE_CONTROL_MESH_MOV..................       0
total # of *CESE_CONTROL_TURBULENCE................       0
total # of *CESE_DRAG..............................       0
total # of *CESE_EOS...............................       0
total # of *CESE_FSI_EXCLUDE.......................       0
total # of *CESE_DEFINE_POINT......................       0
total # of *CESE_INITIAL...........................       0
total # of *CESE_INITIAL_CHEMISTRY.................       0
total # of *CESE_INITIAL_CHEMISTRY_ELEMENT.........       0
total # of *CESE_INITIAL_CHEMISTRY_PART............       0
total # of *CESE_INITIAL_CHEMISTRY_SET.............       0
total # of *CESE_INITIAL_SET.......................       0
total # of *CESE_INITIAL_SEGMENT...................       0
total # of *CESE_MAT...............................       0
total # of *CESE_PART..............................       0
total # of *CESE_PART_MESH.........................       0
total # of *CESE_SURFACE_MECHSSID_D3PLOT...........       0
total # of *CESE_SURFACE_MECHVARS_D3PLOT...........       0
total # of *CHEMISTRY_COMPOSITION..................       0
total # of *CHEMISTRY_CONTROL_0D...................       0
total # of *CHEMISTRY_CONTROL_1D...................       0
total # of *CHEMISTRY_CONTROL_CSP..................       0
total # of *CHEMISTRY_CONTROL_FULL.................       0
total # of *CHEMISTRY_CONTROL_INFLATOR.............       0
total # of *CHEMISTRY_CONTROL_ZND..................       0
total # of *CHEMISTRY_DET_INITIATION...............       0
total # of *CHEMISTRY_INFLATOR_PROPERTIES..........       0
total # of *CHEMISTRY_PATH.........................       0
total # of *COMPONENT_GEBOD........................       0
total # of *COMPONENT_GEBOD_JOINT..................       0
total # of *COMPONENT_HYBRIDIII....................       0
total # of *COMPONENT_HYBRIDIII_JOINT..............       0
total # of *CONSTRAINED_BEAM_IN_SOLID..............       0
total # of *CONSTRAINED_BUTT_WELD..................       0
total # of *CONSTRAINED_EXTRA_NODES................       0
total # of *CONSTRAINED_EXTRA_NODES_SET............       0
total # of *CONSTRAINED_GLOBAL.....................       0
total # of *CONSTRAINED_INTERPOLATION..............       0
total # of *CONSTRAINED_JOINT_type.................       0
total # of *CONSTRAINED_JOINT_COOR_type............       0
total # of *CONSTRAINED_JOINT_..._FAILURE..........       0
total # of *CONSTRAINED_JOINT_USER_FORCE...........       0
total # of *CONSTRAINED_JOINT_STIFFNESS_type.......       0
total # of *CONSTRAINED_LAGRANGE_IN_SOLID..........       0
total # of *CONSTRAINED_LINEAR.....................       0
total # of *CONSTRAINED_LINEAR_LOCAL...............       0
total # of *CONSTRAINED_NODAL_RIGID_BODY_option....       0
total # of *CONSTRAINED_NODE_SET...................       0
total # of *CONSTRAINED_RIGID_BODIES...............       0
total # of *CONSTRAINED_RIGID_BODY_STOPPERS........       0
total # of *CONSTRAINED_SHELL-SOLID................       0
total # of *CONSTRAINED_SPLINE.....................       0
total # of *CONSTRAINED_SPOTWELD+CONSTRAINED_RIVET.       0
total # of *CONSTRAINED_SPR2/INTERPOLATION_SPOTWELD       0
total # of *CONSTRAINED_TIE-BREAK..................       0
total # of *CONSTRAINED_TIE-NODE-FAILURE...........       0
total # of *CONTACT_option.........................       0
total # of *CONTACT_GEOMETRIC_option...............       0
total # of *CONTACT_GUIDED_CABLE...................       0
total # of *CONTACT_1D.............................       0
total # of *CONTACT_2D.............................       0
total # of *CONTACT_2D_AUTOMATIC...................       0
total # of *CONTROL_ACOUSTIC.......................       0
total # of *CONTROL_ADAPTIVITY.....................       0
total # of *CONTROL_BULK_VISCOSITY.................       0
total # of *CONTROL_CHECK..........................       0
total # of *CONTROL_CONTACT........................       0
total # of *CONTROL_COUPLING.......................       0
total # of *CONTROL_CPM............................       0
total # of *CONTROL_CPU............................       0
total # of *CONTROL_DYNAMIC_RELAXATION (DAMPING)...       0
total # of *CONTROL_EFG............................       0
total # of *CONTROL_ENERGY.........................       0
total # of *CONTROL_EXPLOSIVE_SHADOW...............       0
total # of *CONTROL_FREQUENCY_DOMAIN...............       0
total # of *CONTROL_FREQUENCY_RESPONSE_FUNCTION....       0
total # of *CONTROL_HOURGLASS......................       0
total # of *MPP_option.............................       0
total # of *CONTROL_MAT............................       0
total # of *CONTROL_NONLOCAL.......................       0
total # of *CONTROL_OUTPUT.........................       0
total # of *CONTROL_PARALLEL.......................       0
total # of *CONTROL_REFINE.........................       0
total # of *CONTROL_SHELL..........................       0
total # of *CONTROL_SOLID..........................       0
total # of *CONTROL_SOLUTION.......................       0
total # of *CONTROL_SPH............................       0
total # of *CONTROL_SUBCYCLE.......................       0
total # of *CONTROL_TERMINATION....................       1
total # of *CONTROL_THERMAL_SOLVER.................       0
total # of *CONTROL_THERMAL_TIMESTEP...............       0
total # of *CONTROL_THERMAL_NONLINEAR..............       0
total # of *CONTROL_THERMAL_EIGENVALUE.............       0
total # of *CONTROL_TIMESTEP.......................       0
total # of *CONTROL_UNITS..........................       0
total # of *CONTROL_VIBRO_ACOUSTIC.................       0
total # of *COUPLE_TO_OTHER_CODES..................       0
total # of *DAMPING_GLOBAL.........................       0
total # of *DAMPING_PART_MASS......................       0
total # of *DAMPING_PART_MASS_SET..................       0
total # of *DAMPING_PART_STIFFNESS.................       0
total # of *DAMPING_PART_STIFFNESS_SET.............       0
total # of *DAMPING_RELATIVE.......................       0
total # of *DAMPING_STRUCTURAL.....................       0
total # of *CONTROL_DISCRETE_SPHERE................       0
total # of *DATABASE_ABSTAT........................       0
total # of *DATABASE_ATDOUT........................       0
total # of *DATABASE_AVSFLT........................       0
total # of *DATABASE_BEARING.......................       0
total # of *DATABASE_BNDOUT........................       0
total # of *DATABASE_CPM_SENSOR....................       0
total # of *DATABASE_CURVOUT.......................       0
total # of *DATABASE_DISBOUT.......................       0
total # of *DATABASE_DCFAIL........................       0
total # of *DATABASE_DEFGEO........................       0
total # of *DATABASE_DEFORC........................       0
total # of *DATABASE_DEMASSFLOW....................       0
total # of *DATABASE_ELOUT.........................       1
total # of *DATABASE_FSI...........................       0
total # of *DATABASE_FSI_SENSOR....................       0
total # of *DATABASE_GCEOUT........................       0
total # of *DATABASE_GLSTAT........................       0
total # of *DATABASE_H3OUT.........................       0
total # of *DATABASE_JNTFORC.......................       0
total # of *DATABASE_MASSOUT.......................       0
total # of *DATABASE_MATSUM........................       0
total # of *DATABASE_MPGS.......... ...............       0
total # of *DATABASE_MOVIE.........................       0
total # of *DATABASE_NCFORC........................       0
total # of *DATABASE_NODFOR........................       0
total # of *DATABASE_NODOUT........................       1
total # of *DATABASE_PBSTAT........................       0
total # of *DATABASE_PGSTAT........................       0
total # of *DATABASE_PG_SENSOR.....................       0
total # of *DATABASE_PLLYOUT.......................       0
total # of *DATABASE_PRTUBEOUT.....................       0
total # of *DATABASE_RBDOUT........................       0
total # of *DATABASE_RCFORC_MOMENT.................       0
total # of *DATABASE_RCFORC........................       0
total # of *DATABASE_RWFORC........................       0
total # of *DATABASE_SBTOUT........................       0
total # of *DATABASE_SECFORC.......................       1
total # of *DATABASE_SLEOUT........................       0
total # of *DATABASE_SPCFORC.......................       0
total # of *DATABASE_SPH...........................       0
total # of *DATABASE_TRACER........................       0
total # of *DATABASE_TRACER_ALE....................       0
total # of *DATABASE_TRACER_GENERATE...............       0
total # of *DATABASE_SUPERPLASTIC..................       0
total # of *DATABASE_SWFORC........................       0
total # of *DATABASE_TPRINT........................       0
total # of *DATABASE_TRHIST........................       0
total # of *DATABASE_BINARY_D3PLOT.................       1
total # of *DATABASE_BINARY_D3THDT.................       0
total # of *DATABASE_BINARY_D3PART.................       0
total # of *DATABASE_BINARY_D3DRFL.................       0
total # of *DATABASE_BINARY_D3DUMP.................       0
total # of *DATABASE_BINARY_RUNRSF.................       0
total # of *DATABASE_BINARY_INTFOR.................       0
total # of *DATABASE_BINARY_FSIFOR.................       0
total # of *DATABASE_BINARY_CPMFOR.................       0
total # of *DATABASE_BINARY_PBMFOR.................       0
total # of *DATABASE_BINARY_PGFOR..................       0
total # of *DATABASE_BINARY_DEMFOR.................       0
total # of *DATABASE_BINARY_BLSTFOR................       0
total # of *DATABASE_CROSS_SECTION_option..........       1
total # of *DATABASE_EXTENT_AVS....................       0
total # of *DATABASE_EXTENT_MOVIE .................       0
total # of *DATABASE_EXTENT_MPGS...................       0
total # of *DATABASE_EXTENT_BINARY.................       0
total # of *DATABASE_EXTENT_BINARY_COMP............       0
total # of *DATABASE_EXTENT_D3PART.................       0
total # of *DATABASE_EXTENT_INTFOR.................       0
total # of *DATABASE_FREQUENCY_ASCII_option........       0
total # of *DATABASE_FREQUENCY_BINARY_D3ACC........       0
total # of *DATABASE_FREQUENCY_BINARY_D3ACS........       0
total # of *DATABASE_FREQUENCY_BINARY_D3ATV........       0
total # of *DATABASE_FREQUENCY_BINARY_D3FTG........       0
total # of *DATABASE_FREQUENCY_BINARY_D3PSD........       0
total # of *DATABASE_FREQUENCY_BINARY_D3RMS........       0
total # of *DATABASE_FREQUENCY_BINARY_D3SPCM.......       0
total # of *DATABASE_FREQUENCY_BINARY_D3SSD........       0
total # of *DATABASE_FREQUENCY_BINARY_D3ZCF........       0
total # of *DATABASE_HISTORY_NODE_option...........     272
total # of *DATABASE_HISTORY_SOLID_option..........       0
total # of *DATABASE_HISTORY_BEAM_option...........       0
total # of *DATABASE_HISTORY_SHELL_option..........     240
total # of *DATABASE_HISTORY_SPH_option............       0
total # of *DATABASE_HISTORY_TSHELL_option.........       0
total # of *DATABASE_NODAL_FORCE_GROUP.............       0
total # of *DATABASE_POWER_SPECTRAL_DENSITY........       0
total # of *DATABASE_POWER_SPECTRAL_DENSITY_FREQUE.       0
total # of *DATABASE_PWP_FLOW .....................       0
total # of *DEFINE_ADAPTIVE_SOLID_TO_DES...........       0
total # of *DEFINE_ADAPTIVE_SOLID_TO_HBOND.........       0
total # of *DEFINE_ADAPTIVE_SOLID_TO_SPH...........       0
total # of *DEFINE_BEAM_SOLID_COUPLING.............       0
total # of *DEFINE_BOX.............................       0
total # of *DEFINE_CONSTRUCTION_STAGES ............       0
total # of *DEFINE_CONTACT_EXCLUSION...............       0
total # of *DEFINE_COORDINATE_option...............       0
total # of *DEFINE_CPM_BAG_INTERACTION.............       0
total # of *DEFINE_CPM_CHAMBER.....................       0
total # of *DEFINE_CPM_GAS_PROPERTIES..............       0
total # of *DEFINE_CPM_VENT........................       0
total # of *DEFINE_CURVE...........................       3
total # of *DEFINE_CURVE_DUPLICATE.................       0
total # of *DEFINE_CURVE_ENTITY....................       0
total # of *DEFINE_CURVE_FUNCTION..................       0
total # of *DEFINE_DE_ACTIVE_REGION................       0
total # of *DEFINE_DE_INJECTION....................       0
total # of *DEFINE_DE_TO_SURFACE_COUPLING..........       0
total # of *DEFINE_DE_TO_SURFACE_EROSION...........       0
total # of *DEFINE_DE_TO_SURFACE_TIED..............       0
total # of *DEFINE_DE_TO_BEAM_COUPLING.............       0
total # of *DEFINE_DE_BOND.........................       0
total # of *DEFINE_DE_HBOND........................       0
total # of *DEFINE_DE_BY_PART......................       0
total # of *DEFINE_DE_MASSFLOW_PLANE...............       0
total # of *DEFINE_DE_COHESIVE.....................       0
total # of *DEFINE_FRACTURE........................       0
total # of *DEFINE_FRICTION........................       0
total # of *DEFINE_FUNCTION........................       0
total # of *DEFINE_GROUND_MOTION...................       0
total # of *DEFINE_PRESSURE_TUBE...................       0
total # of *ALE_STRUCTURED_MESH....................       0
total # of *SMMALE_MESH_VOLUME_FILLING.............       0
total # of *DEFINE_MULTI_SHEET_CONNECTORS..........       0
total # of *DEFINE_PLANE...........................       0
total # of *DEFINE_PBLAST_HEGEO....................       0
total # of *DEFINE_PBLAST_AIRGEO...................       0
total # of *DEFINE_SPH_ACTIVE_REGION...............       0
total # of *DEFINE_SPH_INJECTION...................       0
total # of *DEFINE_VECTOR..........................       0
total # of *DEFINE_VECTOR_NODE.....................       0
total # of *DEFINE_SD_ORIENTATION..................       0
total # of *DEFINE_ELEMENT_DEATH_SOLID.............       0
total # of *DEFINE_ELEMENT_DEATH_BEAM..............       0
total # of *DEFINE_ELEMENT_DEATH_SHELL.............       0
total # of *DEFINE_ELEMENT_DEATH_TSHELL............       0
total # of *DEFINE_PG_BAG_INTERACTION..............       0
total # of *DEFINE_PG_CHAMBER......................       0
total # of *DEFINE_PG_GAS_PROPERTIES...............       0
total # of *DEFINE_PG_VENT.........................       0
total # of *DEFINE_SHELL_ELEMENT_DEATH_THICK.......       0
total # of *DEFINE_ELEMENT_EROSION_SHELL...........       0
total # of *DEFINE_ELEMENT_EROSION_TSHELL..........       0
total # of *DEFINE_SPH_TO_SPH_COUPLING.............       0
total # of *DEFINE_SPH_DE_COUPLING.................       0
total # of *DEFINE_SPOTWELD_RUPTURE_STRESS.........       0
total # of *DEFINE_SPOTWELD_RUPTURE_PARAMETER......       0
total # of *DEFINE_STAGED_CONSTRUCTION_PART .......       0
total # of *DATABASE_BKSTAT........................       0
total # of *DEFORMABLE_TO_RIGID....................       0
total # of *DEFORMABLE_TO_RIGID_AUTOMATIC..........       0
total # of *DEFORMABLE_TO_RIGID_INERTIA............       0
total # of *ELEMENT_BEAM_option....................       0
total # of *ELEMENT_BEAM_PULLEY....................       0
total # of *ELEMENT_BEAM_SOURCE....................       0
total # of *ELEMENT_DISCRETE.......................       0
total # of *ELEMENT_MASS...........................       0
total # of *ELEMENT_MASS_PART......................       0
total # of *ELEMENT_SEATBELT.......................       0
total # of *ELEMENT_SEATBELT_ACCELEROMETER.........       0
total # of *ELEMENT_SEATBELT_PRETENSIONER..........       0
total # of *ELEMENT_SEATBELT_RETRACTOR.............       0
total # of *ELEMENT_SEATBELT_SENSOR................       0
total # of *ELEMENT_SEATBELT_SLIPRING..............       0
total # of *ELEMENT_SHELL_option...................     570
total # of *ELEMENT_SHELL_NURBS_PATCH..............       0
total # of *ELEMENT_SOLID..........................       0
total # of *ELEMENT_SOLID_NURBS_PATCH..............       0
total # of *ELEMENT_SPH............................       0
total # of *ELEMENT_TSHELL_option..................       0
total # of *ELEMENT_INERTIA........................       0
total # of *MODULE_LOAD............................       0
total # of *MODULE_USE.............................       0
total # of *SENSOR_SWITCH_SHELL_TO_VENT............       0
total # of *SENSOR_CPM_AIRBAG......................       0
total # of *PG_SWITCH_SHELL_TO_VENT................       0
total # of *EM_2DAXI...............................       0
total # of *EM_BOUNDARY............................       0
total # of *EM_CIRCUIT.............................       0
total # of *EM_CIRCUIT_CONNECT.....................       0
total # of *EM_CIRCUIT_RANDLE......................       0
total # of *EM_CIRCUIT_ROGO........................       0
total # of *EM_CONTACT.............................       0
total # of *EM_CONTACT_RESISTANCE..................       0
total # of *EM_CONTROL.............................       0
total # of *EM_CONTROL_CONTACT.....................       0
total # of *EM_CONTROL_SWITCH......................       0
total # of *EM_CONTROL_SWITCH_CONTACT..............       0
total # of *EM_CONTROL_TIMESTEP....................       0
total # of *EM_DATABASE_CIRCUIT....................       0
total # of *EM_DATABASE_CIRCUIT0D..................       0
total # of *EM_DATABASE_ELOUT......................       0
total # of *EM_DATABASE_FIELDINE...................       0
total # of *EM_DATABASE_GLOBALENERGY...............       0
total # of *EM_DATABASE_NODOUT.....................       0
total # of *EM_DATABASE_PARTDATA...................       0
total # of *EM_DATABASE_POINTOUT...................       0
total # of *EM_DATABASE_ROGO.......................       0
total # of *EM_DATABASE_TIMESTEP...................       0
total # of *EM_EOS_BURGESS.........................       0
total # of *EM_EOS_MEADON..........................       0
total # of *EM_EOS_PERMEABILITY....................       0
total # of *EM_EOS_TABULATED1......................       0
total # of *EM_EOS_TABULATED2......................       0
total # of *EM_EXTERNAL_FIELD......................       0
total # of *EM_ISOPOTENTIAL........................       0
total # of *EM_ISOPOTENTIAL_CONNECT................       0
total # of *EM_MAT_001.............................       0
total # of *EM_MAT_002.............................       0
total # of *EM_MAT_003.............................       0
total # of *EM_MAT_004.............................       0
total # of *EM_POINT_SET...........................       0
total # of *EM_OUTPUT..............................       0
total # of *EM_ROTATION_AXIS.......................       0
total # of *EM_SOLVER_BEM..........................       0
total # of *EM_SOLVER_BEMMAT.......................       0
total # of *EM_SOLVER_FEM..........................       0
total # of *EM_SOLVER_FEMBEM.......................       0
total # of *EM_VOLTAGE_DROP........................       0
total # of *EOS_option.............................       0
total # of *FATIGUE................................       0
total # of *FATIGUE_MEAN_STRESS_CORRECTION.........       0
total # of *FREQUENCY_DOMAIN_ACCELERATION_UNIT.....       0
total # of *FREQUENCY_DOMAIN_ACOUSTIC_BEM..........       0
total # of *FREQUENCY_DOMAIN_ACOUSTIC_FEM..........       0
total # of *FREQUENCY_DOMAIN_ACOUSTIC_FRINGE_PLOT..       0
total # of *FREQUENCY_DOMAIN_ACOUSTIC_INCIDENT_WAVE       0
total # of *FREQUENCY_DOMAIN_ACOUSTIC_SOUND_SPEED..       0
total # of *FREQUENCY_DOMAIN_FRF...................       0
total # of *FREQUENCY_DOMAIN_MODE..................       0
total # of *FREQUENCY_DOMAIN_PATH..................       0
total # of *FREQUENCY_DOMAIN_RANDOM_VIBRATION......       0
total # of *FREQUENCY_DOMAIN_RESPONSE_SPECTRUM.....       0
total # of *FREQUENCY_DOMAIN_SEA...................       0
total # of *FREQUENCY_DOMAIN_SEA_CONNECTION........       0
total # of *FREQUENCY_DOMAIN_SEA_INPUTPOWER........       0
total # of *FREQUENCY_DOMAIN_SEA_SUBSYSTEM.........       0
total # of *FREQUENCY_DOMAIN_SSD...................       0
total # of *FV_MESHES..............................       0
total # of *FV_FSI.................................       0
total # of *HOURGLASS..............................       0
total # of *ICFD_BOUNDARY_CONJ_HEAT................       0
total # of *ICFD_BOUNDARY_FLOWRATE.................       0
total # of *ICFD_BOUNDARY_FLUX_TEMP................       0
total # of *ICFD_BOUNDARY_FREESLIP.................       0
total # of *ICFD_BOUNDARY_FSI......................       0
total # of *ICFD_BOUNDARY_FSWAVE...................       0
total # of *ICFD_BOUNDARY_GROUND...................       0
total # of *ICFD_BOUNDARY_NONSLIP..................       0
total # of *ICFD_BOUNDARY_PERIODIC.................       0
total # of *ICFD_BOUNDARY_PRESCRIBED_MOVEMESH......       0
total # of *ICFD_BOUNDARY_PRESCRIBED_PRE...........       0
total # of *ICFD_BOUNDARY_PRESCRIBED_TEMP..........       0
total # of *ICFD_BOUNDARY_PRESCRIBED_TURBULENCE....       0
total # of *ICFD_BOUNDARY_PRESCRIBED_VEL...........       0
total # of *ICFD_BOUNDARY_WINDKESSEL...............       0
total # of *ICFD_CONTROL_ADAPT.....................       0
total # of *ICFD_CONTROL_ADAPT_SIZE................       0
total # of *ICFD_CONTROL_ADVECTION.................       0
total # of *ICFD_CONTROL_CONJ......................       0
total # of *ICFD_CONTROL_CONVERGENCE...............       0
total # of *ICFD_CONTROL_DEM_COUPLING..............       0
total # of *ICFD_CONTROL_EMBEDSHELL................       0
total # of *ICFD_CONTROL_FSI.......................       0
total # of *ICFD_CONTROL_FREESURF..................       0
total # of *ICFD_CONTROL_GENERAL...................       0
total # of *ICFD_CONTROL_IMPOSED_MOVE..............       0
total # of *ICFD_CONTROL_LOAD......................       0
total # of *ICFD_CONTROL_MEMCHECK..................       0
total # of *ICFD_CONTROL_MESH......................       0
total # of *ICFD_CONTROL_MESH_MOV..................       0
total # of *ICFD_CONTROL_OUTPUT....................       0
total # of *ICFD_CONTROL_OUTPUT_SUBDOM.............       0
total # of *ICFD_CONTROL_PARTITION.................       0
total # of *ICFD_CONTROL_PERIODIC..................       0
total # of *ICFD_CONTROL_POROUS....................       0
total # of *ICFD_CONTROL_RANS......................       0
total # of *ICFD_CONTROL_STEADY....................       0
total # of *ICFD_CONTROL_SURFMESH..................       0
total # of *ICFD_CONTROL_TAVERAGE..................       0
total # of *ICFD_CONTROL_TIME......................       0
total # of *ICFD_CONTROL_TRANSIENT.................       0
total # of *ICFD_CONTROL_TURBULENCE................       0
total # of *ICFD_CONTROL_TURB_SYNTHESIS............       0
total # of *ICFD_DATABASE_AVERAGE..................       0
total # of *ICFD_DATABASE_DRAG.....................       0
total # of *ICFD_DATABASE_FLUX.....................       0
total # of *ICFD_DATABASE_HTC......................       0
total # of *ICFD_DATABASE_NODEAVG..................       0
total # of *ICFD_DATABASE_NODOUT...................       0
total # of *ICFD_DATABASE_POINTAVG.................       0
total # of *ICFD_DATABASE_POINTOUT.................       0
total # of *ICFD_DATABASE_RESIDUALS................       0
total # of *ICFD_DATABASE_TEMP.....................       0
total # of *ICFD_DATABASE_TIMESTEP.................       0
total # of *ICFD_DATABASE_UINDEX...................       0
total # of *ICFD_DEFINE_HEATSOURCE.................       0
total # of *ICFD_DEFINE_POINT......................       0
total # of *ICFD_DEFINE_NONINERTIAL................       0
total # of *ICFD_DEFINE_WAVE_DAMPING...............       0
total # of *ICFD_INITIAL...........................       0
total # of *ICFD_INITIAL_LEVELSET..................       0
total # of *ICFD_INITIAL_TURBULENCE................       0
total # of *ICFD_MAT...............................       0
total # of *ICFD_MODEL_NONNEWT.....................       0
total # of *ICFD_MODEL_POROUS......................       0
total # of *ICFD_PART..............................       0
total # of *ICFD_PART_VOL..........................       0
total # of *ICFD_SECTION...........................       0
total # of *ICFD_SET_NODE..........................       0
total # of *ICFD_SOLVER_SPLIT......................       0
total # of *ICFD_SOLVER_TOL_LSET...................       0
total # of *ICFD_SOLVER_TOL_MMOV...................       0
total # of *ICFD_SOLVER_TOL_MOM....................       0
total # of *ICFD_SOLVER_TOL_MONOLITHIC.............       0
total # of *ICFD_SOLVER_TOL_PRE....................       0
total # of *ICFD_SOLVER_TOL_TEMP...................       0
total # of *ICFD_SOLVER_TOL_TURBULENCE.............       0
total # of *INITIAL_AIRBAG_PARTICLE_POSITION.......       0
total # of *INITIAL_AXIAL_FORCE_BEAM...............       0
total # of *INITIAL_CRASHFRONT.....................       0
total # of *INITIAL_DETONATION.....................       0
total # of *INITIAL_FATIGUE_DAMAGE_RATIO...........       0
total # of *INITIAL_FIELD_SOLID....................       0
total # of *INITIAL_IMPULSE_MINE...................       0
total # of *INITIAL_MOMENTUM.......................       0
total # of *INITIAL_PWP_DEPTH .....................       0
total # of *INITIAL_STRAIN_SHELL...................       0
total # of *INITIAL_STRAIN_SHELL_SET...............       0
total # of *INITIAL_STRAIN_SHELL_NURBS_PATCH.......       0
total # of *INITIAL_STRAIN_SOLID...................       0
total # of *INITIAL_STRAIN_SOLID_NURBS_PATCH.......       0
total # of *INITIAL_STRAIN_TSHELL..................       0
total # of *INITIAL_STRESS_BEAM....................       0
total # of *INITIAL_STRESS_DEPTH ..................       0
total # of *INITIAL_STRESS_SECTION.................       0
total # of *INITIAL_STRESS_SHELL...................       0
total # of *INITIAL_STRESS_SHELL_SET...............       0
total # of *INITIAL_STRESS_SHELL_NURBS_PATCH.......       0
total # of *INITIAL_STRESS_SOLID...................       0
total # of *INITIAL_STRESS_SOLID_SET...............       0
total # of *INITIAL_STRESS_SOLID_NURBS_PATCH.......       0
total # of *INITIAL_STRESS_SPH.....................       0
total # of *INITIAL_STRESS_TSHELL..................       0
total # of *INITIAL_TEMPERATURE_SET................       0
total # of *INITIAL_TEMPERATURE_NODE...............       0
total # of *INITIAL_VELOCITY.......................       0
total # of *INITIAL_VELOCITY_NODE..................       0
total # of *INITIAL_VELOCITY_RIGID_BODY............       0
total # of *INITIAL_VOID_PART......................       0
total # of *INITIAL_VOID_SET.......................       0
total # of *INITIAL_VOLUME_FRACTION_GEOMETRY.......       0
total # of *INITIAL_HYDROSTATIC_ALE................       0
total # of *INITIAL_EOS_ALE........................       0
total # of *INITIAL_VAPOR_PART.....................       0
total # of *INITIAL_ALE_MAPPING....................       0
total # of *INITIAL_LAG_MAPPING....................       0
total # of *INITIAL_SOLID_VOLUME...................       0
total # of *INTEGRATION_BEAM.......................       0
total # of *INTEGRATION_SHELL......................       0
total # of *INTERFACE_COMPONENT_option.............       0
total # of *INTERFACE_DE_HBOND.....................       0
total # of *INTERFACE_LINKING_DISCRETE_NODE........       0
total # of *INTERFACE_LINKING_DISCRETE_NODE_SET....       0
total # of *INTERFACE_LINKING_EDGE.................       0
total # of *INTERFACE_LINKING_SEGMENT..............       0
total # of *INTERFACE_SPRINGBACK...................       0
total # of *INTERFACE_SSI_AUXILIARY_FREE_FIELD.....       0
total # of *INTERFACE_SSI_STATIC...................       0
total # of *INTERFACE_SSI..........................       0
total # of *LOAD_ALE_CONVECTION ...................       0
total # of *LOAD_AIR_PRESSURE......................       0
total # of *LOAD_BEAM..............................       0
total # of *LOAD_BEAM_SET..........................       0
total # of *LOAD_BODY_GENERALIZED..................       0
total # of *LOAD_BODY_POROUS.......................       0
total # of *LOAD_BODY_RX...........................       0
total # of *LOAD_BODY_RY...........................       0
total # of *LOAD_BODY_RZ...........................       0
total # of *LOAD_BODY_X............................       0
total # of *LOAD_BODY_Y............................       0
total # of *LOAD_BODY_Z............................       0
total # of *LOAD_BRODE.............................       0
total # of *LOAD_BLAST.............................       0
total # of *LOAD_BLAST_ENHANCED....................       0
total # of *LOAD_BLAST_SEGMENT.....................       0
total # of *LOAD_BLAST_SEGMENT_SET.................       0
total # of *LOAD_DENSITY_DEPTH ....................       0
total # of *LOAD_GRAVITY_PART .....................       0
total # of *LOAD_HEAT_CONTROLLER ..................       0
total # of *LOAD_HEAT_GENERATION_SET...............       0
total # of *LOAD_HEAT_GENERATION_SOLID.............       0
total # of *LOAD_HEAT_GENERATION_SET_SHELL.........       0
total # of *LOAD_HEAT_GENERATION_SHELL.............       0
total # of *LOAD_NODE..............................       0
total # of *LOAD_NODE_SET..........................       0
total # of *LOAD_NSG...............................       0
total # of *LOAD_REMOVE_PART ......................       0
total # of *LOAD_SEGMENT...........................       0
total # of *LOAD_SEGMENT_FSILNK....................       0
total # of *LOAD_SEGMENT_NONUNIFORM................       0
total # of *LOAD_SEGMENT_SET.......................       0
total # of *LOAD_SEGMENT_SET_NONUNIFORM............       0
total # of *LOAD_SEISMIC_SSI_NODE..................       0
total # of *LOAD_SEISMIC_SSI_SET...................       0
total # of *LOAD_SEISMIC_SSI_POINT.................       0
total # of *LOAD_SEISMIC_SSI_DECONV................       0
total # of *LOAD_SHELL.............................       0
total # of *LOAD_SHELL_SET.........................       0
total # of *LOAD_STIFFEN_PART .....................       0
total # of *LOAD_SUPERPLASTIC_FORMING..............       0
total # of *LOAD_SURFACE_STRESS....................       0
total # of *LOAD_THERMAL_option_ELEMENT............       0
total # of *LOAD_THERMAL_option_NODE...............       0
total # of *LOAD_THERMAL_option....................       0
total # of *LOAD_THERMAL_LOAD_CURVE................       0
total # of *LOAD_THERMAL_TOPAZ ....................       0
total # of *LOAD_THERMAL_VARIABLE_SHELL_option.....       0
total # of *LOAD_THERMAL_VARIABLE_BEAM _option.....       0
total # of *LOAD_VIBRO_ACOUSTIC....................       0
total # of *LOAD_VOLUME_LOSS ......................       0
total # of *LSO_DOMAIN.............................       0
total # of *LSO_ID_SET.............................       0
total # of *LSO_POINT_SET..........................       0
total # of *LSO_REGION.............................       0
total # of *LSO_TIME_SEQUENCE......................       0
total # of *LSO_VARIABLE_GROUP.....................       0
total # of *MAT_option.............................       1
total # of *MAT_THERMAL_option.....................       0
total # of *MAT_NONLOCAL...........................       0
total # of *MESH_BL................................       0
total # of *MESH_BL_SYM............................       0
total # of *MESH_EMBEDSHELL........................       0
total # of *MESH_INTERF............................       0
total # of *MESH_SIZE..............................       0
total # of *MESH_SIZE_SHAPE........................       0
total # of *MESH_SURFACE_ELEMENT...................       0
total # of *MESH_SURFACE_NODE......................       0
total # of *MESH_VOLUME............................       0
total # of *MESH_VOLUME_ELEMENT....................       0
total # of *MESH_VOLUME_NODE.......................       0
total # of *MESH_VOLUME_PART.......................       0
total # of *NODE...................................     624
total # of *NODE_MERGE.............................       0
total # of *NODE_MERGE_TOLERANCE...................       0
total # of *PART_option card.......................       1
total # of *PART_ANNEAL_option.....................       0
total # of *PARTICLE_BLAST.........................       0
total # of *PARTICLE_GENERAL.......................       0
total # of *RIGIDWALL_option.......................       0
total # of *SECTION_option.........................       1
total # of *SET_2D_SEGMENT.........................       0
total # of *SET_BEAM...............................       0
total # of *SET_BOX ...............................       0
total # of *SET_DISCRETE...........................       0
total # of *SET_MODE...............................       0
total # of *SET_NODE_option........................       3
total # of *SET_PART...............................       0
total # of *SET_POINT..............................       0
total # of *SET_SEGMENT............................       0
total # of *SET_SHELL_option.......................       0
total # of *SET_SOLID..............................       0
total # of *SET_TSHELL.............................       0
total # of *STOCHASTIC_SPRAY_PARTICLES.............       0
total # of *STOCHASTIC_TBX_PARTICLES...............       0
total # of *TERMINATION_BODY.......................       0
total # of *TERMINATION_DELETED_SHELLS.............       0
total # of *TERMINATION_DELETED_SOLIDS.............       0
total # of *TERMINATION_NODE.......................       0
total # of *TERMINATION_CONTACT....................       0
total # of *TITLE..................................       1
total # of *USER_INTERFACE_CONTROL.................       0
total # of *USER_INTERFACE_FRICTION................       0
total # of *USER_INTERFACE_FORCES..................       0
total # of *USER_INTERFACE_CONDUCTIVITY............       0
total # of *USER_LOAD..............................       0
total # of *USER_MATERIAL_VENDOR...................       0
total # of *USER_MATERIAL_LICENSE..................       0
total # of *USER_NONLOCAL_SEARCH...................       0
total # of *USER_PARAMETER.........................       0
total # of *CHANGE_BOUNDARY_CONDITIONS.............       0
total # of *CHANGE_CONTACT_SMALL_PENETRATION.......       0
total # of *CHANGE_RIGID_BODY_CONSTRAINTS..........       0
total # of *CHANGE_RIGID_BODY_INERTIA..............       0
total # of *CHANGE_THERMAL_PARAMETERS..............       0
total # of *CHANGE_VELOCITY_ZERO...................       0
total # of *CHANGE_VELOCITY_RIGID_BODY.............       0
total # of *DELETE_ALECPL..........................       0
total # of *DELETE_CONTACT.........................       0
total # of *DELETE_CONTACT_2DAUTO..................       0
total # of *DELETE_FSI.............................       0
total # of *DELETE_ENTITY..........................       0
total # of *DELETE_ELEMENT_SOLID...................       0
total # of *DELETE_ELEMENT_BEAM....................       0
total # of *DELETE_ELEMENT_SHELL...................       0
total # of *DELETE_ELEMENT_TSHELL..................       0
total # of *DELETE_PART............................       0
total # of *RIGID_DEFORMABLE_CONTROL...............       0
total # of *RIGID_DEFORMABLE_D2R...................       0
total # of *RIGID_DEFORMABLE_R2D...................       0
total # of *STRESS_INITIALIZATION..................       0

 Memory required to process keyword     :      344914 

 MPP execution with       6 procs

 LS-DYNA will perform a structural only analysis 



 Probe117bIF                                                             
            code input version =1993
            formats            =mlarg



    IMPLICIT CONTROL CARD 1.  General Data

    implicit/explicit switching flag ..............       1
          eq.0: explicit analysis                       
          eq.1: implicit analysis                       
          eq.2: explicit, then seamless springback      
          eq.4: implicit with automatic implicit/explicit switching
          eq.5: implicit with automatic implicit/explicit switching
                with mandatory implicit finish                     
          eq.6: explicit with intermittent eigenvalues  
          eq.-n: load curve n gives flag vs. time       

    initial time step for implicit solution .......    0.2000E+00

    element formulation after switching ...........       1
          eq.1: switch to fully integrated element      
          eq.2: retain element formulation              

    number of steps for nonlinear springback ......       1

    geometric (initial stress) stiffness flag .....       1
          lt.0: absolute value is part set for apply    
          eq.1: include                                 
          eq.2: ignore                                  

    consistent tangential stiffness flag ..........       0
          eq.0: do not use                              
          eq.1: use                                     

    displacement termination tolerance 1 ..........    0.0000E+00
          eq.0: use time based termination (default)    

    displacement termination tolerance 2 ..........    0.0000E+00
          eq.0: use time based termination (default)    

    zero out velocities when switching to implicit.       0
          eq.0: keep velocities (default)    
          eq.1: zero velocities 



    IMPLICIT CONTROL CARD 2.  Solution

    solution method ...............................      12
          eq.-1:linear, multiple loading w/same stiffness
          eq.1: linear                               
          eq.2: nonlinear, BFGS updates              
          eq.3: nonlinear, Broydens updates          
          eq.4: nonlinear, DFP updates               
          eq.5: nonlinear, Davidon updates           
          eq.6: nonlinear, BFGS updates+arclength    
          eq.7: nonlinear, Broydens updates+arclength
          eq.8: nonlinear, DFP updates+arclength     
          eq.9: nonlinear, Davidon updates+arclength 
          eq.12:nonlinear, (experimental), BFGS updates 
                           with optional arclength

    iteration limit per reformation ...............      11

    reformation limit per step ....................      15
          lt.0 implicit will declare convergence after 
               |maxref| matrix reformations

    displacement convergence tolerance ............    0.1000E-02
          lt.0 -(curve ID) defining tolerance w.r.t. time

    energy convergence tolerance ..................    0.1000E-01
          lt.0 -(curve ID) defining tolerance w.r.t. time

    residual convergence tolerance ................    0.9990E+11
          lt.0 -(curve ID) defining tolerance w.r.t. time

    line search convergence tolerance .............    0.9000E+00

    absolute convergence tolerance ................    0.1000E-09

    displacement norm .............................       2
          eq.1: increment vs. total this step           
          eq.2: increment vs. total whole simulation    

    divergence flag ...............................       1
          eq.1: reform stiffness if residual grows      
          eq.2: ignore growing residual                 

    initial stiffness interval ....................       1
          eq.1: form new stiffness each step            
          eq.n: new stiffness every n steps             

    nonlinear solver print flag ...................       0
          eq.0: defaults to same as 1                   
          eq.1: print iteration info to screen, files   
          eq.2: extra iteration info to d3hsp and messag
          eq.3: all iteration info to d3hsp and messag  


    IMPLICIT CONTROL CARD 2a.  Solution

    convergence norms .............................       2
          lt.0: defaults to 4 but scales rotations      
                with characteristic length              
          eq.1: use translational and rotational DOFs   
          eq.2: use only translational DOFs             
          eq.4: use translational plus rotational DOFs  

    d3iter control ................................       0
          eq.0: use sense switch control (default)      
          eq.n: write d3iter database every time step   
                but rewind every n-th time step         

    line search method ............................       4
          eq.1: based on translational dofs (default)   
          eq.2: based on residual function              
          eq.3: based on translational+rotational dofs  

    line search direction .........................       2
          eq.1: traditional form (ls970 and earlier)    
          eq.2: search only independent dofs (default)  
          eq.3: adaptive line search (experimental)     
          eq.4: curved line search (experimental)       

    experimental line search parameters ...........
          curvature factor 0-straight,1-full curved    0.0000E+00
          radius of influence (curved search)          0.0000E+00
          adaptive line search weight (0. to 1.)       0.0000E+00
          init. step reduction (0. to 1.,adaptive)     0.0000E+00
    contact penetration check .....................       0
          eq.0: no checking (default)                   
          eq.1: check for contact penetration           



    IMPLICIT CONTROL CARD 2b.  Joints              

    implicit treatment for spherical joint ........       0
          eq.1: constraint formulation (DEFAULT)
          eq.2: penalty formulation  

    implicit treatment for revolute joint .........       0
          eq.1: constraint formulation (DEFAULT)
          eq.2: penalty formulation  

    implicit treatment for cylindrical joint ......       0
          eq.1: constraint formulation (DEFAULT)
          eq.2: penalty formulation  



    IMPLICIT CONTROL CARD 3.  Linear Solver

    linear equation solver ........................      2
          eq. 2: sparse direct with dynamic memory       
          eq. 5: sparse direct double - auto out-of-core 
                 (obsolete)                              
          eq.22: iterative, C.G. with Diagonal Precond   
          eq.23: iterative, C.G. with Sym GS Precond     
          eq.24: iterative, C.G. with SSOR Precond       
          eq.25: iterative, C.G. with ILDLT Precond      
          eq.26: iterative, C.G. with ILDLT w/extra fill 
          eq.90: User Supplied Linear Equation Solver    

    linear solver print flag ......................      0
          eq.0: no printing                             
          eq.1: small amount of summary statistics      
          eq.2: additional statistics                   
          eq.3: debug level recommended only for problem-debugging

    negative eigenvalue option ....................      2
          eq.1: retry step if negative eigenvalue       
          eq.2: ignore negative eigenvalues             

    sparse ordering option ........................      0
          eq.0: ordering chosen by LS-DYNA              
          eq.1: order with Multiple Minimum Degree      
          eq.2: order with METIS                        
          eq.4: order with LS-GPart                     

    Drilling Rotation Constraint Method ...........      4
          eq.1: add additional stiffness                
          eq.3: no constraint method                    
          eq.4: add force and stiffness                 

    Drilling Rotation Constraint Parameter ........    1.0000E+00

    AUTOSPC Control Switch ........................      1
          eq.1: AUTOSPC On                              
          eq.2: AUTOSPC Off                             

    AUTOSPC Tolerance .............................    1.0000E-08

    Matrix Assembly Method ........................      2
          eq.2: Use LCPACK (default)                    
          eq.3: Use LCPACK w/experimental unsymmetric   

    Matrix Dumping Flag ...........................      0

    User requested number of Metis executions .....      0
    Matrix Reordering Reuse Parameter .............    0.0000E+00



    IMPLICIT CONTROL CARD 4.  Auto Time Step Control

    time step control method ......................       0
          eq.0: fixed (constant) time step size         
          eq.1: variable automatic time step size       
          eq.2: variable automatic time step size with  
                max step limited by thermal time step   
          lt.0: time step size specified by load curve  

    target iteration count ........................      11

    iteration window ..............................       0

    minimum allowable step size ...................    0.0000E+00

    maximum allowable step size ...................    0.0000E+00
          eq.0: max. allowed step size is 10*initial step size
          gt.0: maximum allowed step size                 
          lt.0: -(curve ID) for max. allowed step size    

    time interval to run explicit when switching       0.0000E+00
          lt.0: -(curve ID) for time interval             

    no. of failed steps before switching ..........       1

    min. no. of explicit steps after switching ....       0

    artificial stabilization flag .................       2
          eq.1: on  ('springback' analysis DEFAULT)      
          eq.2: off ('standard' analysis DEFAULT)        

    scale factor for artificial stabilization .....    0.1000E+01

    start time for artificial stabilization .......    0.0000E+00
          eq.0.0: immediately                            

    end time for artificial stabilization .........    0.0000E+00
          eq.0.0: termination time



    IMPLICIT CONTROL CARD 5.  Dynamic and Eigenvalue

    implicit dynamic flag .........................       0
          eq.0: implicit static
          eq.1: implicit dynamic
          eq.2: modal superposition (eigenvalue analysis)
          eq.3: modal superposition using d3eigv file    

    first  Newmark parameter (default=.50) ........    0.0000E+00

    second Newmark parameter (default=.25) ........    0.0000E+00

    number of eigenvalues to extract ..............       0
          lt.0: -(curve ID) for intermittent extraction   

    eigenvalue frequency shift ....................    0.0000E+00

    number of constraint modes to extract .........       0

    number of attachment modes to extract .........       0

    number of eigen      modes to extract .........       0

    buckling mode flag ............................       0
          eq.0: compute eigenvalues
          eq.1: compute buckling modes

    buckling eigenmethod ..........................       1
          eq.1: Lanczos (default)
          eq.2: Power Method (reqd for inertia relief)

    inertia relief computation flag ...............       0
          eq.0: do not perform inertia relief computation
          eq.1: perform inertia relief computation impl/expl

          eq.2: perform inertia relief computation impl only

    inertia relief mode threshold .................    0.0000E+00

    Eigenvector Dumping Flag ......................       0

    Modal Stress Recovering Scaling Parameter .....    0.1000E-02

    Accuracy Control for output to file eigout ....       0
          eq.0: use default of e15.6
          ge.1: use e25.16

    Flag for optional eigenvalue control card .....       0
          eq.0: no card - use defaults
          ge.1: next cards specifies additional parameters

    Optional time integration parameter for composite
    time integration scheme .......................    0.0000E+00
          eq.0: no composite scheme
          gt.0: value is alpha in Bathe scheme
          lt.0: value is alpha in HHT scheme


    IMPLICIT CONTROL CARD 6.  Arc Length            

    node controlling arc length method ............       0
          eq.0: generalized arc length method

    direction controlling arc length method .......       0

    arc length size  ..............................    0.0000E+00
          eq.0: chosen from initial stepsize

    arc length formulation ........................       1
          eq.1: Crisfield (generalized arc length only)
          eq.2: Ramm 
          eq.3: Modified Crisfield
                (used with nonlinear solution method 12 only)

    arc length damping option .....................       2
          eq.1: on
          eq.2: off

    psi, influence of load/time parameter in
    predictor step.................................    0.0000E+00

    alpha, influence of predictor step on
    cylindrical center in corrector steps..........    0.0000E+00

    time when arclength is first initiated.........    0.0000E+00


 c o n t r o l   i n f o r m a t i o n

    CONTROL CARD 1. Model Size-General

    number of materials or property sets...........       1

    number of nodal+scalar points..................     624

    number of merged nodal points..................       0

    number of solid elements.......................       0

    number of beam elements........................       0

    number of shell elements.......................     570

    number of thick shell elements.................       0

    number of user defined material subroutines....       0

    number of material groups tied to solids.......       0

    number of tracer particles.....................       0

    number of super elements.......................       0

    number of solid tetrahedrons with 10 nodes.....       0

    number of quadratic shell elements.............       0

    number of shells with extra degrees of freedom.       0

    number of solids with extra degrees of freedom.       0

    number of user defined sections................       0

    activate sensor capability (inactive=0)........       0

    number of user defined solid element types.....       0

    number of solid interpolation elements.........       0

    number of user defined shell element types.....       0

    number of shell interpolation elements.........       0

    number of constrained nodes for interpolation..       0

    consistent mass matrix for user-def elements...       0

    number of shell nurbs patches..................       0

    number of solid nurbs patches..................       0


    CONTROL CARD 2. Model Size-Boundary Conditions

    number of spc nodes............................      90

    number of spc coordinates......................       0

    number of velocity cards.......................      80

    number of non-reflecting boundary segments.....       0

    number of b. c. cards..........................       0

    number of b. c. cards with failure.............       0

    number of box definition for b. c. card........       0

    number of nodes/interface for cyclic symmetry..       0

    number of rigid bodies with attachment nodes...       0


    CONTROL CARD 3. Model Size-Loading

    number of load curves..........................       3

    number of nodes for load curve functions.......       0

    number of curves for entities..................       0

    number of concentrated load cards..............       0

    number of pressure load cards..................       0

    number of nonuniform pressure loads-4 nodes....       0

    number of nonuniform pressure loads-6 nodes....       0

    number of nonuniform pressure loads-8 nodes....       0

    number of generalized body force sets..........       0

    number of beam pressure card definitions.......       0

    number of detonation points....................       0

    number of zones for momentum deposition........       0

    number of points in density vs. depth curve....       0

    number of outflow boundary segments............       0

    number of load curve feedback sets.............       0

    number of pressure load sets with masks........       0

    number of spray systems .......................       0

    number of initial stress by cross-sections sets       0

    number of pressure load sets...................       0

    number of ground motion definitions............       0

    number of ground motions specified at nodes....       0

    number of ground motions specified at points...       0

    number of ground motions specified in bin file.       0

    number of segsets with specified ground motion.       0

    number of soil-structure interfaces for output.       0

    number of aero-acoustic load cards.............       0

    number of delayed curve........................       0

    number of pid controller.......................       0


    CONTROL CARD 4. Model Size-Constraints and Contact

    number of rigid wall definitions...............       0

    number of number of contact definitions........       0

    number of number of guided cable contacts......       0

    number of shell-solid interfaces...............       0

    number of tie-breaking slide lines.............       0

    number of blocks of tied nodes with fracture ..       0

    number of tied nodal pairs for linking.........       0

    number of constraint cards.....................       0

    number of linear constraint equations..........       0

    number of 1d slidelines........................       0

    number of adaptive constraints.................       0

    number of ALE smoothing constraints............       0

    number of 2d slidelines........................       0

    number of 2d automatic contacts................       0

    number of part IDs for interior contact........       0

    number of beam release sets....................       0

    max. number of nodes in any beam release set...       0


    CONTROL CARD 5. Model Size-Rigid Body Parameters

    number of rigid body constraint sets...........       0

    number of rigid body merge cards...............       0

    number of joint constraints....................       0

    number of joint failure definitions............       0

    number of joint user force definitions.........       0

    number of extra node blocks....................       0

    number of rigid body inertia definitions.......       0

    number of geometric contact entities...........       0

    number of joint stiffness definitions..........       0

    number of rigid body stoppers..................       0

    joint formulation for rigid bodies.............       0
          eq.0:  penalty                                 
          eq.1:  lagrange multiplier                     

    generalized stiffness angle update ............       3
          eq.0:  incremental formulation                 
          eq.1:  total formulation                       

    number of flexible bodies......................       0
          lt.0:  stress recovery active                  

    number of relative damping definitions.........       0

    flag for reading rigid surface contact input...       0
          eq.0:  no rigid surface contact                 
          eq.1:  read rigid surface input                

    number of Hybrid III dummies ..................       0

    number of Hybrid III joint modifications ......       0

    number of interpolation constraints ...........       0

    flag for metalforming fast rigid bodies........       0
          eq.0:  full rigid body treatment               
          eq.1:  fast rigid body treatment               

    number of prescribed rigid body orientations          0


    CONTROL CARD 6. Model Size-Discrete Elements & Seat Belts

    number of spring-damper material types.........       0

    number of local coordinate systems.............       0

    number of discrete springs and dampers.........       0

    number of lumped masses........................       0

    number of parts with added mass................       0

    number of nodes with mass matrix...............       0

    number of seat belt materials..................       0

    number of seat belt elements...................       0

    number of 2d seat belt elements................       0

    number of slip rings...........................       0

    number of retractors...........................       0

    number of sensors..............................       0

    number of pretensioners........................       0

    number of accelerometers.......................       0

    number of discrete rotary inertias.............       0

    number of SPH particles........................       0

    number of groups of SPH particles..............       0


    CONTROL CARD 7. Model Size-Output Control

    number of cross section definitions............       1

    number of nodal groups for resultant forces....       0

    number of interface segments for linking.......       0

    max. number of segments defining rigid wall....       0

    number of power spectrum density databases.....       0


    CONTROL CARD 8. Computation Options-Termination

    termination time...............................    0.2000E+02

    termination cycle..............................       0

    reduction factor for minimum time step (TSMIN).    0.0000E+00

    percent change in energy ratio for termination.    0.0000E+00

    percent change in total mass for termination...    0.1000E+09

    number of nodes for displacement termination...       0

    number of rigid bodies for disp. termination...       0

    number of conditions for contact termination...       0

    number of conditions for ldcurve termination...       0

    ID of sensor_switch  for sensor  termination... 0


    CONTROL CARD 8a. Computation Options-Start      

    start time.....................................    0.0000E+00


    CONTROL CARD 9. Computation Options-Time Step Size 

    initial time step size.........................    0.0000E+00

    time step scale factor.........................    0.9000E+00

    time step size calculation for 4-node shells...       0
          eq.0:  based on longest element side          
          eq.1:  based on longest element diagonal      
          eq.2:  based on bar wave speed max side       
          eq.3:  based on optimal time step size        
                 estimator                              

    shell element minimum time step assignment.....    0.0000E+00

    time step size for mass scaled solution, dt2ms.    0.0000E+00
          lt.0:  minimum time step size permitted       

    load curve number for maximum timestep.........       0

    erosion flag for solid and thick shells........       0
          eq.0:  no                                      
          eq.1:  yes                                     

    option part set ID for eroding solids.......... 0
          eq.0:  all solids are checked if eros_flag=1   
          gt.0:  solids within part set are checked      

    limit mass scaling to the first time step......       0
          eq.0:  no                                      
          eq.1:  yes                                     

    scale factor on initial dt to determine dt2ms..    0.0000E+00

    load curve ID for mass scaling ................ 0

    flag for selective mass scaling................       0
          eq.0:  off                                     
          eq.1:  on                                      
          eq.2:  on for part subset                      

    consistent constraint logical switch...........       F

    flag for part set for erosion .................       0
          eq.0:  no                                      
          eq.1:  yes                                     

    flag for accounting for rotations in sms.......    0.0000E+00
          eq.0.:  off (default)                           
          gt.0.:  on                                      
    implicit_explicit_hybrid part set..............       0



    CONTROL CARD 10. Computation Options-Loading

    x-ground acceleration..........................       0
          eq.0:  no                                      
          eq.1:  yes                                     

    y-ground acceleration..........................       0
          eq.0:  no                                      
          eq.1:  yes                                     

    z-ground acceleration..........................       0
          eq.0:  no                                      
          eq.1:  yes                                     

    x-angular velocity.............................       0
          eq.0:  no                                      
          eq.1:  yes                                     

    y-angular velocity.............................       0
          eq.0:  no                                      
          eq.1:  yes                                     

    z-angular velocity.............................       0
          eq.0:  no                                      
          eq.1:  yes                                     

    number of materials receiving body forces......       0
          eq.0:  all                                     
          eq.n:  subset of n materials                   

    flag for user defined loading subroutine.......       0
          lt.0:  magnitude=# of input constants          
          eq.0:  no                                      
          eq.1:  yes, but no additional input            

    explosive initiation option....................       0
          eq.0:  lighting times based on distance        
          eq.1:  lighting times include geometric        
                 effects for wave shapers, etc.          

    sub-sea structural analysis option.............       0
          eq.0:  off                                     
          eq.1:  on with 1 point integration             
          eq.4:  on with 4 point integration             
    contact pressure calculation option............       0
          eq.0:  off (default)                           
          eq.1:  on                                      
    # of user defined loading set..................       0


    CONTROL CARD 11. Computation Options-Input Control

    initialization of velocities...................       0
          eq.0: velocities are initialized to zero       
          eq.1: initial velocities are read in           
          eq.2: all velocities have same input value     
          eq.3: as 2 but exempted nodes are defined      
          eq.4: box option                               
          eq.5: generation with arbitrary numbering      
          eq.6: rotational and translational via IDs     
          eq.7: option 6 but applied during calculation  

    time to apply initial velocites (option 7).....    0.0000E+00

    arbitrary node and element numbering flag .....       1

    constitute, eqs-of-state, cross-section option.       0
          eq.0:  off                                     
          eq.1:  separate input is required for each     

    specified nodal coordinate format..............    e20.0

    flag for thermodynamic control volume input....       0

    overpressure option (eq.0 no,  eq.1 yes).......       0

    number of part (de) activation sensors.........       0

    number of rigid body initial velocity sets.....       0

    jacobian tolerance for type 16 tetrahedron.....    0.0000E+00

    flag to check for NaN in force/moment arrays...       0

    load curve accuracy flag.......................       0

    cycles between evaluation of curve functions...       1


    CONTROL CARD 12. Computation Options-Elements  

    warped shell angle in deg. for error message...    0.2000E+02

    iterative plane stress plasticity for shells...       1
          eq.1:  vectorized with three iterates         
          eq.2:  nonvectorized iterations as needed     
          eq.3:  noniterative radial return             

    Calculation option for F for solid elements....       0
          eq.0:  default, explicit=1, implicit=2        
          eq.1:  integrate incrementally                
          eq.2:  compute directly                       

    flag for automatic sorting ....................       0
          eq. 1:  on for triangular shells              
          eq.11:  on for triangular shells and solids   
          eq.10:  on for solids (tets and pentas)       

    formulation for sorted degenerate tet/pent.....       0
          eq. 0:  no sorting required(default)           
          eq. 1:  type 10 tet & type 15 pent             
          eq. 2:  type 10 tet, 1pt pent to type 15 pent, 
                  fully intg pent to type 115 pent       
          eq. 3:  same as 1 & switch elem in messag file 
          eq. 4:  same as 2 & switch elem in messag file 

    formulation for sorted trianglar shells .......       0
          eq. 0:  no sorting required(default)           
          eq. 1:  C0 triangle, type  4                   
          eq. 2:  DKT triangle type 17                   

    hughes-liu normal computation options..........      -1
          eq.-2: unique nodal fibers                    
          eq.-1: compute normals each cycle
          eq.0 : default set to -1     
          eq.1 : compute on restart
          eq.n : compute on restart + each nth cycle     

    consistent tangent for type 13 solid...........       0
          eq.0 : no, recommended for nonlinear implicit 
          eq.1 : yes, may improve linear response       

    thickness modification for membrane strains....       0
          eq.0:  no                                     
          eq.1:  4-node shell only                      
          eq.2:  8-node thick shell types 1 & 2         
          eq.3:  update both 4 & 8 node thickness       
          eq.4:  same as option 1 but the elastic       
                 strains are neglected                  

    shell part set ID (pids) for thickness update.  0
          lt.0: exclude pids if update option is active  
          eq.0: include  all if update option is active  
          gt.0: include pids if update option is active  

    shell part set ID where type 4 update applies   0

    shell formulation basis........................ 2
          eq.   1: hughes-liu                            
          eq.   2: belytschko-tsay                       
          eq.   3: bciz                                  
          eq.   4: c0-triangular element                 
          eq.   5: membrane element                      
          eq.   6: s/r hughes-liu                        
          eq.   7: s/r co-rotational hughes-liu          
          eq.   8: belytschko-leviathan shell            
          eq.   9: fully integrated membrane             
          eq.  10: belytschko-wong-chiang                
          eq.  11: fast hughes-liu                       
          eq.  12: 2d plane stress                       
          eq.  13: 2d plane strain                       
          eq.  14: 2d axisymmetric  (area wgt)           
          eq.  15: 2d axisymmetric  (volume wgt)         
          eq.  16: fully integrated element              
          eq.  17: dkt element                           
          eq.  18: dkq-dkt linear element                
          eq.  20: assumed strain linear element         
          eq.  21: assumed strain linear element(5DOF)   
          eq.  22: linear shear panel element(3DOF)      
          eq.  23: 8-node quadratic quadrilateral shell  
          eq.  24: 6-node quadratic triangular shell     
          eq.  25: belytschko-tsay with                  
                   thickness stretch                     
          eq.  26: fully integrated element with         
                   thickness stretch                     
[...]

 Convergence detected as a combination of
     1. Ratio of euclidian displacement translational norms          
        Value =   7.7671E-04 vs Tolerance =   1.0000E-03
     2. Ratio of euclidian energy       translational norms          
        Value =   4.3113E-05 vs Tolerance =   1.0000E-02

 BEGIN implicit statics  step     85 t= 1.7000E+01             11/27/21 19:19:24
 ============================================================
                time =  1.70000E+01
   current step size =  2.00000E-01
 Iteration:   1     *|du|/|u| =  1.1668693E-02     *Ei/E0 =  4.2861778E-01
 Iteration:   2     *|du|/|u| =  7.8977625E-04     *Ei/E0 =  5.7203204E-05

 Equilibrium iterations summary step     85 t= 1.7000E+01      11/27/21 19:19:25
    Number of iterations to converge         =           2
    Number of stiffness reformations         =           0
    Number of right hand side evaluations    =           3

 Convergence detected as a combination of
     1. Ratio of euclidian displacement translational norms          
        Value =   7.8978E-04 vs Tolerance =   1.0000E-03
     2. Ratio of euclidian energy       translational norms          
        Value =   5.7203E-05 vs Tolerance =   1.0000E-02

 BEGIN implicit statics  step     86 t= 1.7200E+01             11/27/21 19:19:25
 ============================================================
                time =  1.72000E+01
   current step size =  2.00000E-01
 Iteration:   1     *|du|/|u| =  1.1551868E-02     *Ei/E0 =  4.1710279E-01
 Iteration:   2     *|du|/|u| =  7.6453016E-04     *Ei/E0 =  6.4518724E-05

 Equilibrium iterations summary step     86 t= 1.7200E+01      11/27/21 19:19:25
    Number of iterations to converge         =           2
    Number of stiffness reformations         =           0
    Number of right hand side evaluations    =           3

 Convergence detected as a combination of
     1. Ratio of euclidian displacement translational norms          
        Value =   7.6453E-04 vs Tolerance =   1.0000E-03
     2. Ratio of euclidian energy       translational norms          
        Value =   6.4519E-05 vs Tolerance =   1.0000E-02
     371 t 1.7200E+01 dt 2.00E-01 write d3plot file            11/27/21 19:19:25

 BEGIN implicit statics  step     87 t= 1.7400E+01             11/27/21 19:19:25
 ============================================================
                time =  1.74000E+01
   current step size =  2.00000E-01
 Iteration:   1     *|du|/|u| =  1.1427536E-02     *Ei/E0 =  4.1663575E-01
 Iteration:   2     *|du|/|u| =  7.6006119E-04     *Ei/E0 =  6.8910851E-05

 Equilibrium iterations summary step     87 t= 1.7400E+01      11/27/21 19:19:25
    Number of iterations to converge         =           2
    Number of stiffness reformations         =           0
    Number of right hand side evaluations    =           3

 Convergence detected as a combination of
     1. Ratio of euclidian displacement translational norms          
        Value =   7.6006E-04 vs Tolerance =   1.0000E-03
     2. Ratio of euclidian energy       translational norms          
        Value =   6.8911E-05 vs Tolerance =   1.0000E-02

 BEGIN implicit statics  step     88 t= 1.7600E+01             11/27/21 19:19:25
 ============================================================
                time =  1.76000E+01
   current step size =  2.00000E-01
 Iteration:   1     *|du|/|u| =  1.1303739E-02     *Ei/E0 =  4.1629814E-01
 Iteration:   2     *|du|/|u| =  7.5619278E-04     *Ei/E0 =  7.1808537E-05

 Equilibrium iterations summary step     88 t= 1.7600E+01      11/27/21 19:19:25
    Number of iterations to converge         =           2
    Number of stiffness reformations         =           0
    Number of right hand side evaluations    =           3

 Convergence detected as a combination of
     1. Ratio of euclidian displacement translational norms          
        Value =   7.5619E-04 vs Tolerance =   1.0000E-03
     2. Ratio of euclidian energy       translational norms          
        Value =   7.1809E-05 vs Tolerance =   1.0000E-02
     379 t 1.7600E+01 dt 2.00E-01 write d3plot file            11/27/21 19:19:25

 BEGIN implicit statics  step     89 t= 1.7800E+01             11/27/21 19:19:25
 ============================================================
                time =  1.78000E+01
   current step size =  2.00000E-01
 Iteration:   1     *|du|/|u| =  1.1181060E-02     *Ei/E0 =  4.1395672E-01
 Iteration:   2     *|du|/|u| =  7.5140844E-04     *Ei/E0 =  7.4456658E-05

 Equilibrium iterations summary step     89 t= 1.7800E+01      11/27/21 19:19:26
    Number of iterations to converge         =           2
    Number of stiffness reformations         =           0
    Number of right hand side evaluations    =           3

 Convergence detected as a combination of
     1. Ratio of euclidian displacement translational norms          
        Value =   7.5141E-04 vs Tolerance =   1.0000E-03
     2. Ratio of euclidian energy       translational norms          
        Value =   7.4457E-05 vs Tolerance =   1.0000E-02

 BEGIN implicit statics  step     90 t= 1.8000E+01             11/27/21 19:19:26
 ============================================================
                time =  1.80000E+01
   current step size =  2.00000E-01
 Iteration:   1     *|du|/|u| =  1.1059270E-02     *Ei/E0 =  4.1127653E-01
 Iteration:   2     *|du|/|u| =  7.4519582E-04     *Ei/E0 =  7.6522965E-05

 Equilibrium iterations summary step     90 t= 1.8000E+01      11/27/21 19:19:26
    Number of iterations to converge         =           2
    Number of stiffness reformations         =           0
    Number of right hand side evaluations    =           3

 Convergence detected as a combination of
     1. Ratio of euclidian displacement translational norms          
        Value =   7.4520E-04 vs Tolerance =   1.0000E-03
     2. Ratio of euclidian energy       translational norms          
        Value =   7.6523E-05 vs Tolerance =   1.0000E-02

 BEGIN implicit statics  step     91 t= 1.8200E+01             11/27/21 19:19:26
 ============================================================
                time =  1.82000E+01
   current step size =  2.00000E-01
 Iteration:   1     *|du|/|u| =  1.0940756E-02     *Ei/E0 =  4.0908264E-01
 Iteration:   2     *|du|/|u| =  7.4043824E-04     *Ei/E0 =  7.8593022E-05

 Equilibrium iterations summary step     91 t= 1.8200E+01      11/27/21 19:19:26
    Number of iterations to converge         =           2
    Number of stiffness reformations         =           0
    Number of right hand side evaluations    =           3

 Convergence detected as a combination of
     1. Ratio of euclidian displacement translational norms          
        Value =   7.4044E-04 vs Tolerance =   1.0000E-03
     2. Ratio of euclidian energy       translational norms          
        Value =   7.8593E-05 vs Tolerance =   1.0000E-02
     391 t 1.8200E+01 dt 2.00E-01 write d3plot file            11/27/21 19:19:26

 BEGIN implicit statics  step     92 t= 1.8400E+01             11/27/21 19:19:26
 ============================================================
                time =  1.84000E+01
   current step size =  2.00000E-01
 Iteration:   1     *|du|/|u| =  1.0823765E-02     *Ei/E0 =  4.0646210E-01
 Iteration:   2     *|du|/|u| =  7.3658192E-04     *Ei/E0 =  8.0536453E-05

 Equilibrium iterations summary step     92 t= 1.8400E+01      11/27/21 19:19:26
    Number of iterations to converge         =           2
    Number of stiffness reformations         =           0
    Number of right hand side evaluations    =           3

 Convergence detected as a combination of
     1. Ratio of euclidian displacement translational norms          
        Value =   7.3658E-04 vs Tolerance =   1.0000E-03
     2. Ratio of euclidian energy       translational norms          
        Value =   8.0536E-05 vs Tolerance =   1.0000E-02

 BEGIN implicit statics  step     93 t= 1.8600E+01             11/27/21 19:19:26
 ============================================================
                time =  1.86000E+01
   current step size =  2.00000E-01
 Iteration:   1     *|du|/|u| =  1.0710093E-02     *Ei/E0 =  4.0614493E-01
 Iteration:   2     *|du|/|u| =  7.3495134E-04     *Ei/E0 =  8.2316145E-05

 Equilibrium iterations summary step     93 t= 1.8600E+01      11/27/21 19:19:26
    Number of iterations to converge         =           2
    Number of stiffness reformations         =           0
    Number of right hand side evaluations    =           3

 Convergence detected as a combination of
     1. Ratio of euclidian displacement translational norms          
        Value =   7.3495E-04 vs Tolerance =   1.0000E-03
     2. Ratio of euclidian energy       translational norms          
        Value =   8.2316E-05 vs Tolerance =   1.0000E-02
     399 t 1.8600E+01 dt 2.00E-01 write d3plot file            11/27/21 19:19:26

 BEGIN implicit statics  step     94 t= 1.8800E+01             11/27/21 19:19:26
 ============================================================
                time =  1.88000E+01
   current step size =  2.00000E-01
 Iteration:   1     *|du|/|u| =  1.0599655E-02     *Ei/E0 =  4.0593977E-01
 Iteration:   2     *|du|/|u| =  7.3570105E-04     *Ei/E0 =  8.4508610E-05

 Equilibrium iterations summary step     94 t= 1.8800E+01      11/27/21 19:19:26
    Number of iterations to converge         =           2
    Number of stiffness reformations         =           0
    Number of right hand side evaluations    =           3

 Convergence detected as a combination of
     1. Ratio of euclidian displacement translational norms          
        Value =   7.3570E-04 vs Tolerance =   1.0000E-03
     2. Ratio of euclidian energy       translational norms          
        Value =   8.4509E-05 vs Tolerance =   1.0000E-02

 BEGIN implicit statics  step     95 t= 1.9000E+01             11/27/21 19:19:26
 ============================================================
                time =  1.90000E+01
   current step size =  2.00000E-01
 Iteration:   1     *|du|/|u| =  1.0490875E-02     *Ei/E0 =  4.0357059E-01
 Iteration:   2     *|du|/|u| =  7.3406364E-04     *Ei/E0 =  8.6514445E-05

 Equilibrium iterations summary step     95 t= 1.9000E+01      11/27/21 19:19:26
    Number of iterations to converge         =           2
    Number of stiffness reformations         =           0
    Number of right hand side evaluations    =           3

 Convergence detected as a combination of
     1. Ratio of euclidian displacement translational norms          
        Value =   7.3406E-04 vs Tolerance =   1.0000E-03
     2. Ratio of euclidian energy       translational norms          
        Value =   8.6514E-05 vs Tolerance =   1.0000E-02

 BEGIN implicit statics  step     96 t= 1.9200E+01             11/27/21 19:19:27
 ============================================================
                time =  1.92000E+01
   current step size =  2.00000E-01
 Iteration:   1     *|du|/|u| =  1.0384423E-02     *Ei/E0 =  4.0325076E-01
 Iteration:   2     *|du|/|u| =  7.3531345E-04     *Ei/E0 =  8.8721272E-05

 Equilibrium iterations summary step     96 t= 1.9200E+01      11/27/21 19:19:27
    Number of iterations to converge         =           2
    Number of stiffness reformations         =           0
    Number of right hand side evaluations    =           3

 Convergence detected as a combination of
     1. Ratio of euclidian displacement translational norms          
        Value =   7.3531E-04 vs Tolerance =   1.0000E-03
     2. Ratio of euclidian energy       translational norms          
        Value =   8.8721E-05 vs Tolerance =   1.0000E-02
     411 t 1.9200E+01 dt 2.00E-01 write d3plot file            11/27/21 19:19:27

 BEGIN implicit statics  step     97 t= 1.9400E+01             11/27/21 19:19:27
 ============================================================
                time =  1.94000E+01
   current step size =  2.00000E-01
 Iteration:   1     *|du|/|u| =  1.0280067E-02     *Ei/E0 =  4.0062619E-01
 Iteration:   2     *|du|/|u| =  7.3375665E-04     *Ei/E0 =  9.0684041E-05

 Equilibrium iterations summary step     97 t= 1.9400E+01      11/27/21 19:19:27
    Number of iterations to converge         =           2
    Number of stiffness reformations         =           0
    Number of right hand side evaluations    =           3

 Convergence detected as a combination of
     1. Ratio of euclidian displacement translational norms          
        Value =   7.3376E-04 vs Tolerance =   1.0000E-03
     2. Ratio of euclidian energy       translational norms          
        Value =   9.0684E-05 vs Tolerance =   1.0000E-02

 BEGIN implicit statics  step     98 t= 1.9600E+01             11/27/21 19:19:27
 ============================================================
                time =  1.96000E+01
   current step size =  2.00000E-01
 Iteration:   1     *|du|/|u| =  1.0178112E-02     *Ei/E0 =  3.9819139E-01
 Iteration:   2     *|du|/|u| =  7.3511520E-04     *Ei/E0 =  9.3239936E-05

 Equilibrium iterations summary step     98 t= 1.9600E+01      11/27/21 19:19:27
    Number of iterations to converge         =           2
    Number of stiffness reformations         =           0
    Number of right hand side evaluations    =           3

 Convergence detected as a combination of
     1. Ratio of euclidian displacement translational norms          
        Value =   7.3512E-04 vs Tolerance =   1.0000E-03
     2. Ratio of euclidian energy       translational norms          
        Value =   9.3240E-05 vs Tolerance =   1.0000E-02
     419 t 1.9600E+01 dt 2.00E-01 write d3plot file            11/27/21 19:19:27

 BEGIN implicit statics  step     99 t= 1.9800E+01             11/27/21 19:19:27
 ============================================================
                time =  1.98000E+01
   current step size =  2.00000E-01
 Iteration:   1     *|du|/|u| =  1.0078640E-02     *Ei/E0 =  3.9796766E-01
 Iteration:   2     *|du|/|u| =  7.3651757E-04     *Ei/E0 =  9.5500921E-05

 Equilibrium iterations summary step     99 t= 1.9800E+01      11/27/21 19:19:27
    Number of iterations to converge         =           2
    Number of stiffness reformations         =           0
    Number of right hand side evaluations    =           3

 Convergence detected as a combination of
     1. Ratio of euclidian displacement translational norms          
        Value =   7.3652E-04 vs Tolerance =   1.0000E-03
     2. Ratio of euclidian energy       translational norms          
        Value =   9.5501E-05 vs Tolerance =   1.0000E-02

 BEGIN implicit statics  step    100 t= 2.0000E+01             11/27/21 19:19:27
 ============================================================
                time =  2.00000E+01
   current step size =  2.00000E-01
 Iteration:   1     *|du|/|u| =  9.9812675E-03     *Ei/E0 =  3.9776193E-01
 Iteration:   2     *|du|/|u| =  7.3921173E-04     *Ei/E0 =  9.8060821E-05

 Equilibrium iterations summary step    100 t= 2.0000E+01      11/27/21 19:19:27
    Number of iterations to converge         =           2
    Number of stiffness reformations         =           0
    Number of right hand side evaluations    =           3

 Convergence detected as a combination of
     1. Ratio of euclidian displacement translational norms          
        Value =   7.3921E-04 vs Tolerance =   1.0000E-03
     2. Ratio of euclidian energy       translational norms          
        Value =   9.8061E-05 vs Tolerance =   1.0000E-02
     427 t 2.0000E+01 dt 2.00E-01 write d3plot file            11/27/21 19:19:27
 
 *** termination time reached ***
     427 t 2.0000E+01 dt 2.00E-01 write d3dump01 file          11/27/21 19:19:28
     427 t 2.0000E+01 dt 2.00E-01 flush i/o buffers            11/27/21 19:19:28

 N o r m a l    t e r m i n a t i o n                          11/27/21 19:19:28

 S t o r a g e   a l l o c a t i o n   

 Memory required to complete solution (memory=    345K)
          Minimum     51K on processor     2
          Maximum     54K on processor     0
          Average     52K

 Matrix Assembly dynamically allocated memory
          Maximum     89K

 Additional dynamically allocated memory
          Minimum   1696K on processor     0
          Maximum   2015K on processor     4
          Average   1959K

 Total allocated memory
          Minimum   1838K on processor     0
          Maximum   2155K on processor     4
          Average   2099K

 T i m i n g   i n f o r m a t i o n
                        CPU(seconds)   %CPU  Clock(seconds) %Clock
  ----------------------------------------------------------------
  Keyword Processing ... 0.0000E+00    0.00     9.4000E-02    0.39
    KW Writing ......... 0.0000E+00    0.00     2.6667E-03    0.01
  MPP Decomposition .... 1.0000E+00    4.35     6.2767E-01    2.62
    Init Proc .......... 1.0000E+00    4.35     4.3800E-01    1.83
    Decomposition ...... 0.0000E+00    0.00     3.1000E-02    0.13
    Translation ........ 0.0000E+00    0.00     1.5867E-01    0.66
  Initialization ....... 4.0000E+00   17.39     4.8263E+00   20.18
    Init Proc Phase 1 .. 0.0000E+00    0.00     7.8000E-02    0.33
    Init Proc Phase 2 .. 0.0000E+00    0.00     4.7000E-02    0.20
  Element processing ... 2.0000E+00    8.70     1.0383E+00    4.34
    Shells ............. 2.0000E+00    8.70     1.0358E+00    4.33
  Binary databases ..... 0.0000E+00    0.00     7.8000E-02    0.33
  ASCII database ....... 0.0000E+00    0.00     1.4750E-01    0.62
  Contact algorithm .... 0.0000E+00    0.00     5.3333E-03    0.02
  Implicit ............. 3.3333E-01    1.45     5.1317E-01    2.15
  Implicit Nonlinear ... 1.0000E+00    4.35     3.8363E+00   16.04
    Imp. NL force mod .. 0.0000E+00    0.00     3.7500E-01    1.57
  Implicit Lin. Alg. ... 1.4333E+01   62.32     1.2213E+01   51.07
    Imp. LA Mtx Assemb . 7.0000E+00   30.43     7.0418E+00   29.45
    Imp. LA Factor ..... 6.3333E+00   27.54     4.7550E+00   19.89
    Imp. LA Solve ...... 1.0000E+00    4.35     4.1367E-01    1.73
  Time step size ....... 0.0000E+00    0.00     1.8567E-01    0.78
  Others ............... 0.0000E+00    0.00     8.0000E-03    0.03
  Misc. 1 .............. 0.0000E+00    0.00     2.6667E-03    0.01
  Misc. 3 .............. 0.0000E+00    0.00     3.2800E-01    1.37
  Misc. 4 .............. 3.3333E-01    1.45     8.0000E-03    0.03
  ----------------------------------------------------------------
  T o t a l s            2.3000E+01  100.00     2.3912E+01  100.00

 Problem time       =    2.0000E+01
 Problem cycle      =       427
 Total CPU time     =        23 seconds (   0 hours  0 minutes 23 seconds)
 CPU time per zone cycle  =      73955.380 nanoseconds
 Clock time per zone cycle=      75450.922 nanoseconds

 Parallel execution with      6 MPP proc
 NLQ used/max               136/   136

  C P U   T i m i n g   i n f o r m a t i o n

  Processor   Hostname                              CPU/Avg_CPU  CPU(seconds)
  ---------------------------------------------------------------------------
  #       0   Studpool20                                0.84214   6.2656E+00
  #       1   Studpool20                                1.04375   7.7656E+00
  #       2   Studpool20                                0.98915   7.3594E+00
  #       3   Studpool20                                1.05845   7.8750E+00
  #       4   Studpool20                                1.03955   7.7344E+00
  #       5   Studpool20                                1.02695   7.6406E+00
  ---------------------------------------------------------------------------
  T o t a l s                                                     4.4641E+01


 Start time   11/27/2021 19:19:08  
 End time     11/27/2021 19:19:28  
 Elapsed time      20 seconds for     427 cycles using     6 MPP procs
             (      0 hour   0 minute  20 seconds)

 N o r m a l    t e r m i n a t i o n                          11/27/21 19:19:28
