 Probe117bIF                                                             
                         ls-dyna mpp.139235 d           date 07/27/2019


