$# LS-DYNA Keyword file created by LS-PrePost(R) V4.8.20 - 22Sep2021
$# Created on Nov-27-2021 (19:18:42)
*KEYWORD
*TITLE
$#                                                                         title
Probe117bIF
*CONTROL_IMPLICIT_GENERAL
$#  imflag       dt0    imform      nsbs       igs     cnstn      form    zero_v
         1       0.2         1         1         1         0         0         0
*CONTROL_TERMINATION
$#  endtim    endcyc     dtmin    endeng    endmas     nosol     
      20.0         0       0.0       0.01.000000E8         0
*DATABASE_ELOUT
$#      dt    binary      lcur     ioopt   option1   option2   option3   option4
      0.05         0         0         1         0         0         0         0
*DATABASE_NODOUT
$#      dt    binary      lcur     ioopt   option1   option2       
      0.05         0         0         1       0.0         0
*DATABASE_SECFORC
$#      dt    binary      lcur     ioopt     
      0.05         0         0         1
*DATABASE_BINARY_D3PLOT
$#      dt      lcdt      beam     npltc    psetid      
       0.5         0         0         0         0
$#   ioopt      rate    cutoff    window      type      pset    
         0       0.0       0.0       0.0         0         0
*DATABASE_CROSS_SECTION_PLANE_ID
$#    csid                                                                 title
         1                                                                      
$#    psid       xct       yct       zct       xch       ych       zch    radius
         05.72205E-6      12.5       0.0   6.25001      12.5       0.0       0.0
$#    xhev      yhev      zhev      lenl      lenm        id     itype     
       0.0       0.0       0.0       0.0       0.0         0         0
*DATABASE_HISTORY_NODE
$#     id1       id2       id3       id4       id5       id6       id7       id8
       598       559       520       481       442       403       364       325
       301       262       223       184       145       106        67        28
       613       574       535       496       457       418       379       340
       285       246       207       168       129        90        51        12
       597       558       519       480       441       402       363       324
       300       261       222       183       144       105        66        27
       612       573       534       495       456       417       378       339
       299       260       221       182       143       104        65        26
       611       572       533       494       455       416       377       338
       298       259       220       181       142       103        64        25
       610       571       532       493       454       415       376       337
       297       258       219       180       141       102        63        24
       609       570       531       492       453       414       375       336
       296       257       218       179       140       101        62        23
       608       569       530       491       452       413       374       335
       295       256       217       178       139       100        61        22
       607       568       529       490       451       412       373       334
       294       255       216       177       138        99        60        21
       606       567       528       489       450       411       372       333
       293       254       215       176       137        98        59        20
$ ... 14 like lines cut
*DATABASE_HISTORY_SHELL
$#     id1       id2       id3       id4       id5       id6       id7       id8
       545       507       469       431       393       355       317       279
       255       217       179       141       103        65        27         0
       559       521       483       445       407       369       331       293
       240       202       164       126        88        50        12         0
       544       506       468       430       392       354       316       278
       254       216       178       140       102        64        26         0
       558       520       482       444       406       368       330       292
       253       215       177       139       101        63        25         0
       557       519       481       443       405       367       329       291
       252       214       176       138       100        62        24         0
       556       518       480       442       404       366       328       290
       251       213       175       137        99        61        23         0
       555       517       479       441       403       365       327       289
       250       212       174       136        98        60        22         0
       554       516       478       440       402       364       326       288
       248       210       172       134        96        58        20         0
       241       203       165       127        89        51        13         0
       546       508       470       432       394       356       318       280
       242       204       166       128        90        52        14         0
       547       509       471       433       395       357       319       281
$ ... 12 like lines cut
*BOUNDARY_PRESCRIBED_MOTION_SET
$#    nsid       dof       vad      lcid        sf       vid     death     birth
         3         1         2         1      10.0         01.00000E28       0.0
*BOUNDARY_SPC_SET
$#    nsid       cid      dofx      dofy      dofz     dofrx     dofry     dofrz
         1         0         1         0         1         1         1         1
*SET_NODE_LIST_TITLE
NODESET(SPC) 1
$#     sid       da1       da2       da3       da4    solver      
         1       0.0       0.0       0.0       0.0MECH
$#    nid1      nid2      nid3      nid4      nid5      nid6      nid7      nid8
         1         2         3         4         5        40        41        42
        43        44        79        80        81        82        83       118
       119       120       121       122       157       158       159       160
       161       196       197       198       199       200       235       236
       237       238       239       274       275       276       277       278
       313       314       315       316       317       352       353       354
       355       356       391       392       393       394       395       430
       431       432       433       434       469       470       471       472
       473       508       509       510       511       512       547       548
       549       550       551       586       587       588       589       590
*BOUNDARY_SPC_SET
$#    nsid       cid      dofx      dofy      dofz     dofrx     dofry     dofrz
         2         0         0         1         0         0         0         0
*SET_NODE_LIST_TITLE
NODESET(SPC) 2
$#     sid       da1       da2       da3       da4    solver      
         2       0.0       0.0       0.0       0.0MECH
$#    nid1      nid2      nid3      nid4      nid5      nid6      nid7      nid8
       274       275       276       277       278       313       314       315
       316       317       308       309       310       311       312       347
       348       349       350       351         0         0         0         0
*PART
$#                                                                         title
Probe117bF
$#     pid     secid       mid     eosid      hgid      grav    adpopt      tmid
         1         1         1         0         0         0         0         0
*SECTION_SHELL_TITLE
Shell
$#   secid    elform      shrf       nip     propt   qr/irid     icomp     setyp
         1        16       1.0         5       1.0         0         0         1
$#      t1        t2        t3        t4      nloc     marea      idof    edgset
       1.0       1.0       1.0       1.0       0.0       0.0       0.0         0
*MAT_PIECEWISE_LINEAR_PLASTICITY_TITLE
Bayblend T65 XF
$#     mid        ro         e        pr      sigy      etan      fail      tdel
         11.13000E-6      2.35      0.38     0.054       0.01.00000E21       0.0
$#       c         p      lcss      lcsr        vp  
       0.0       0.0       101         0       0.0
$#    eps1      eps2      eps3      eps4      eps5      eps6      eps7      eps8
       0.0       0.0       0.0       0.0       0.0       0.0       0.0       0.0
$#     es1       es2       es3       es4       es5       es6       es7       es8
       0.0       0.0       0.0       0.0       0.0       0.0       0.0       0.0
*DEFINE_CURVE_TITLE
Motion
$#    lcid      sidr       sfa       sfo      offa      offo    dattyp     lcint
         1         0       1.0       1.0       0.0       0.0         0         0
$#                a1                  o1  
                 0.0                 0.0
                20.0                 1.0
                25.0                 1.0
*DEFINE_CURVE_TITLE
Hardening curve
$#    lcid      sidr       sfa       sfo      offa      offo    dattyp     lcint
       100         0       1.0       1.0       0.0       0.0         0         0
$#                a1                  o1  
                 0.0           0.0559811
    5.9836002765e-04           0.0562478
           0.0017951           0.0567658
           0.0035902           0.0575074
           0.0059836           0.0584375
           0.0089755           0.0595189
           0.0125656           0.0607162
           0.0167542           0.0619982
           0.0215411           0.0633385
           0.0269264           0.0647162
             0.03291            0.066115
            0.039492           0.0675222
           0.0466724           0.0689286
           0.0544511           0.0703272
           0.0628282            0.071713
           0.0718037           0.0730825
           0.0813775           0.0744333
           0.0915497           0.0757639
           0.1023202           0.0770731
           0.1136891           0.0783606
$ ... 81 like lines cut
*DEFINE_CURVE_STRESS_TITLE
Hockett-Sherby
$#    lcid     itype        p1        p2        p3        p4        p5        p6
       101         4      0.14      0.09       1.5       0.8       0.0       0.0
*ELEMENT_SHELL
$#   eid     pid      n1      n2      n3      n4      n5      n6      n7      n8
       1       1       1       2      41      40       0       0       0       0
       2       1       2       3      42      41       0       0       0       0
       3       1       3       4      43      42       0       0       0       0
       4       1       4       5      44      43       0       0       0       0
       5       1       5       6      45      44       0       0       0       0
       6       1       6       7      46      45       0       0       0       0
       7       1       7       8      47      46       0       0       0       0
       8       1       8       9      48      47       0       0       0       0
       9       1       9      10      49      48       0       0       0       0
      10       1      10      11      50      49       0       0       0       0
      11       1      11      12      51      50       0       0       0       0
      12       1      12      13      52      51       0       0       0       0
      13       1      13      14      53      52       0       0       0       0
      14       1      14      15      54      53       0       0       0       0
      15       1      15      16      55      54       0       0       0       0
      16       1      16      17      56      55       0       0       0       0
      17       1      17      18      57      56       0       0       0       0
      18       1      18      19      58      57       0       0       0       0
      19       1      19      20      59      58       0       0       0       0
      20       1      20      21      60      59       0       0       0       0
$ ... 550 like lines cut
*NODE
$#   nid               x               y               z      tc      rc  
       1           -19.0             0.0             0.0       0       0
       2       -17.97847             0.0             0.0       0       0
       3       -16.95694             0.0             0.0       0       0
       4        -15.9354             0.0             0.0       0       0
       5        -14.9238       0.0401611             0.0       0       0
       6       -14.00822       0.4929752             0.0       0       0
       7       -13.07216       0.9017925             0.0       0       0
       8       -12.11774        1.265688             0.0       0       0
       9       -11.14712        1.583843             0.0       0       0
      10       -10.16248        1.855541             0.0       0       0
      11        -9.16605        2.080166             0.0       0       0
      12       -8.160074         2.25721             0.0       0       0
      13       -7.146824        2.386278             0.0       0       0
      14       -6.128586        2.467073             0.0       0       0
      15        -5.10766        2.499418             0.0       0       0
      16       -4.086128             2.5             0.0       0       0
      17       -3.064594             2.5             0.0       0       0
      18        -2.04306             2.5             0.0       0       0
      19       -1.021526             2.5             0.0       0       0
      20    5.722046e-06             2.5             0.0       0       0
$ ... 604 like lines cut
*SET_NODE_LIST_TITLE
Node set 3
$#     sid       da1       da2       da3       da4    solver      
         3       0.0       0.0       0.0       0.0MECH
$#    nid1      nid2      nid3      nid4      nid5      nid6      nid7      nid8
        35        36        37        38        39        74        75        76
        77        78       113       114       115       116       117       152
       153       154       155       156       191       192       193       194
       195       230       231       232       233       234       269       270
       271       272       273       308       309       310       311       312
       347       348       349       350       351       386       387       388
       389       390       425       426       427       428       429       464
       465       466       467       468       503       504       505       506
       507       542       543       544       545       546       581       582
       583       584       585       620       621       622       623       624
*END
