 Probe117bIF                                                             
                         ls-dyna mpp.139235 d           date 07/27/2019

{BEGIN LEGEND}
 Entity #        Title
        1                                                                                     
{END LEGEND}



 line#1  section#     time        x-force     y-force     z-force    magnitude
 line#2  resultant  moments       x-moment    y-moment    z-moment   magnitude
 line#3  centroids                x           y           z            area  
           1    0.00000E+00     0.0000E+00  0.0000E+00  0.0000E+00  0.0000E+00
global system                   0.0000E+00  0.0000E+00  0.0000E+00  0.0000E+00
                                8.2744E-01  7.2889E+00  0.0000E+00  1.6129E+01

           1    2.00000E-01     8.5766E-02  1.7811E-09 -1.5032E-19  8.5766E-02
global system                  -3.5432E-20  7.7282E-20 -1.8138E-02  1.8138E-02
                                8.7986E-01  7.2885E+00 -2.0689E-17  1.6138E+01

           1    4.00000E-01     1.7104E-01  4.3292E-09 -2.1455E-19  1.7104E-01
global system                  -4.6504E-20 -9.7318E-20 -3.6234E-02  3.6234E-02
                                9.3228E-01  7.2881E+00 -1.5049E-17  1.6147E+01

           1    6.00000E-01     2.5581E-01  7.3160E-09 -7.1334E-20  2.5581E-01
global system                   6.0071E-20  1.4588E-19 -5.4288E-02  5.4288E-02
                                9.8469E-01  7.2878E+00 -3.1551E-18  1.6156E+01

           1    8.00000E-01     3.4010E-01  1.0700E-08 -5.4752E-21  3.4010E-01
global system                   4.0796E-21 -2.6568E-19 -7.2300E-02  7.2300E-02
                                1.0371E+00  7.2874E+00  6.7613E-19  1.6165E+01

           1    1.00000E+00     4.2390E-01  1.4440E-08 -1.4064E-21  4.2390E-01
global system                  -1.9671E-19 -1.8312E-19 -9.0269E-02  9.0269E-02
                                1.0895E+00  7.2871E+00 -8.9446E-19  1.6174E+01

           1    1.20000E+00     4.9880E-01 -1.3947E-05  3.2407E-20  4.9880E-01
global system                  -3.7507E-19 -1.5278E-18 -1.0641E-01  1.0641E-01
                                1.1422E+00  7.2867E+00 -1.6519E-18  1.6182E+01

           1    1.40000E+00     5.1935E-01 -4.0039E-06  7.8255E-20  5.1935E-01
global system                   5.3494E-19  2.8890E-18 -1.1118E-01  1.1118E-01
                                1.1976E+00  7.2859E+00 -1.0022E-18  1.6195E+01

           1    1.60000E+00     5.3602E-01 -9.8545E-07  1.1481E-20  5.3602E-01
global system                   3.9459E-19 -1.3167E-18 -1.1506E-01  1.1506E-01
                                1.2519E+00  7.2853E+00  3.4254E-18  1.6205E+01

           1    1.80000E+00     5.4604E-01 -2.8973E-07  4.7759E-20  5.4604E-01
global system                   1.9474E-19 -5.1792E-19 -1.1755E-01  1.1755E-01
                                1.3065E+00  7.2847E+00  1.9406E-18  1.6216E+01

           1    2.00000E+00     5.5584E-01 -4.5672E-07  2.4060E-20  5.5584E-01
global system                   1.3212E-18  8.8313E-20 -1.1994E-01  1.1994E-01
                                1.3604E+00  7.2842E+00  3.1663E-18  1.6226E+01

           1    2.20000E+00     5.6435E-01  2.3678E-07 -1.1263E-19  5.6435E-01
global system                  -6.1536E-19  7.3662E-19 -1.2205E-01  1.2205E-01
                                1.4141E+00  7.2837E+00  2.6868E-18  1.6235E+01

           1    2.40000E+00     5.7251E-01  1.2409E-08  1.7787E-20  5.7251E-01
global system                   3.2285E-19 -1.7095E-19 -1.2410E-01  1.2410E-01
                                1.4678E+00  7.2832E+00  1.5883E-18  1.6244E+01

           1    2.60000E+00     5.7998E-01  1.2903E-07  2.4487E-20  5.7998E-01
global system                   5.4078E-19 -1.3552E-18 -1.2598E-01  1.2598E-01
                                1.5214E+00  7.2828E+00  4.3476E-18  1.6254E+01

           1    2.80000E+00     5.8698E-01  6.7401E-08  1.7381E-20  5.8698E-01
global system                   9.4320E-19  5.6169E-19 -1.2777E-01  1.2777E-01
                                1.5749E+00  7.2823E+00 -1.5758E-18  1.6263E+01

           1    3.00000E+00     5.9364E-01  1.2835E-07  7.9633E-20  5.9364E-01
global system                  -6.2399E-19  1.2432E-18 -1.2948E-01  1.2948E-01
                                1.6284E+00  7.2819E+00 -4.7437E-19  1.6273E+01

           1    3.20000E+00     5.9991E-01  1.1008E-07 -4.7565E-20  5.9991E-01
global system                  -3.5076E-19  1.1092E-18 -1.3111E-01  1.3111E-01
                                1.6819E+00  7.2814E+00 -1.2458E-18  1.6282E+01

           1    3.40000E+00     6.0593E-01  1.0929E-07  3.3882E-20  6.0593E-01
global system                   8.3963E-19 -1.0671E-18 -1.3269E-01  1.3269E-01
                                1.7353E+00  7.2810E+00 -8.4027E-19  1.6292E+01

           1    3.60000E+00     6.1167E-01  1.4547E-07 -1.8312E-20  6.1167E-01
global system                   1.1890E-19  7.5848E-19 -1.3421E-01  1.3421E-01
                                1.7887E+00  7.2806E+00  9.4622E-19  1.6302E+01

           1    3.80000E+00     6.1710E-01  1.0690E-07  1.3840E-20  6.1710E-01
global system                   3.9082E-19 -4.3983E-19 -1.3565E-01  1.3565E-01
                                1.8421E+00  7.2802E+00  3.7894E-18  1.6312E+01

           1    4.00000E+00     6.2217E-01  6.6421E-07  1.7574E-20  6.2217E-01
global system                  -1.2344E-18  5.7782E-19 -1.3701E-01  1.3701E-01
                                1.8953E+00  7.2798E+00  4.8394E-18  1.6322E+01

           1    4.20000E+00     6.2741E-01  2.7125E-07  5.2833E-20  6.2741E-01
global system                  -9.7281E-19  1.4279E-18 -1.3843E-01  1.3843E-01
                                1.9488E+00  7.2794E+00  1.8969E-18  1.6333E+01

           1    4.40000E+00     6.3209E-01  5.1590E-07  1.8991E-20  6.3209E-01
global system                  -1.3467E-19  1.8541E-18 -1.3970E-01  1.3970E-01
                                2.0020E+00  7.2790E+00  4.1362E-18  1.6342E+01

           1    4.60000E+00     6.3695E-01  2.0093E-07  1.7336E-20  6.3695E-01
global system                  -1.1476E-19  3.1192E-19 -1.4104E-01  1.4104E-01
                                2.0554E+00  7.2786E+00  2.4972E-18  1.6354E+01

           1    4.80000E+00     6.4133E-01  3.0756E-07 -9.3186E-20  6.4133E-01
global system                  -5.0389E-19 -1.1208E-18 -1.4225E-01  1.4225E-01
                                2.1086E+00  7.2782E+00  4.7546E-18  1.6364E+01

           1    5.00000E+00     6.4559E-01  4.9250E-07  6.3278E-20  6.4559E-01
global system                   3.4809E-19 -2.1953E-19 -1.4344E-01  1.4344E-01
                                2.1618E+00  7.2778E+00  3.4438E-18  1.6374E+01

           1    5.20000E+00     6.4979E-01  3.7547E-07 -5.6832E-20  6.4979E-01
global system                   5.1812E-19  2.5421E-18 -1.4462E-01  1.4462E-01
                                2.2151E+00  7.2774E+00  1.7327E-18  1.6385E+01

           1    5.40000E+00     6.5385E-01  5.5099E-07 -2.3603E-20  6.5385E-01
global system                  -2.1637E-19  9.6620E-19 -1.4577E-01  1.4577E-01
                                2.2683E+00  7.2771E+00  4.2136E-18  1.6396E+01

           1    5.60000E+00     6.5782E-01  3.4455E-07  6.1740E-20  6.5782E-01
global system                   9.7449E-20  5.2984E-19 -1.4690E-01  1.4690E-01
                                2.3216E+00  7.2767E+00  1.9257E-18  1.6408E+01

           1    5.80000E+00     6.6166E-01  4.8061E-07  4.7835E-21  6.6166E-01
global system                   7.4720E-19  3.2204E-19 -1.4801E-01  1.4801E-01
                                2.3749E+00  7.2763E+00  1.9787E-18  1.6419E+01

           1    6.00000E+00     6.6537E-01  7.8566E-08 -1.3453E-20  6.6537E-01
global system                   6.0849E-19 -1.1855E-18 -1.4908E-01  1.4908E-01
                                2.4281E+00  7.2759E+00 -2.6095E-18  1.6430E+01

           1    6.20000E+00     6.6900E-01  3.9789E-07  9.4688E-20  6.6900E-01
global system                  -8.6310E-19 -9.8428E-19 -1.5014E-01  1.5014E-01
                                2.4814E+00  7.2756E+00  2.2843E-19  1.6442E+01

           1    6.40000E+00     6.7249E-01  1.5018E-07 -1.2213E-19  6.7249E-01
global system                   4.1749E-20  1.5725E-18 -1.5116E-01  1.5116E-01
                                2.5346E+00  7.2752E+00 -3.4403E-19  1.6454E+01

           1    6.60000E+00     6.7593E-01  2.8449E-07  6.9707E-20  6.7593E-01
global system                   9.1558E-20 -1.9475E-18 -1.5218E-01  1.5218E-01
                                2.5879E+00  7.2749E+00  3.6109E-18  1.6466E+01

           1    6.80000E+00     6.7923E-01  4.5419E-07 -1.0969E-20  6.7923E-01
global system                  -1.0990E-18 -2.5802E-20 -1.5316E-01  1.5316E-01
                                2.6411E+00  7.2745E+00  2.2119E-18  1.6478E+01

           1    7.00000E+00     6.8246E-01  2.7116E-07 -2.8214E-20  6.8246E-01
global system                  -1.8699E-19 -1.7406E-18 -1.5413E-01  1.5413E-01
                                2.6944E+00  7.2742E+00  1.0166E-20  1.6491E+01

           1    7.20000E+00     6.8559E-01  4.0177E-07 -3.4696E-21  6.8559E-01
global system                  -3.8280E-19 -8.7997E-19 -1.5508E-01  1.5508E-01
                                2.7477E+00  7.2738E+00 -6.9107E-19  1.6503E+01

           1    7.40000E+00     6.8864E-01  2.6732E-07 -7.0791E-20  6.8864E-01
global system                  -1.3223E-18  3.5013E-19 -1.5601E-01  1.5601E-01
                                2.8009E+00  7.2735E+00 -1.2583E-18  1.6516E+01

           1    7.60000E+00     6.9162E-01  3.4116E-07  4.1084E-20  6.9162E-01
global system                   4.8993E-19 -1.5462E-18 -1.5692E-01  1.5692E-01
                                2.8542E+00  7.2731E+00 -1.2482E-18  1.6528E+01

           1    7.80000E+00     6.9452E-01 -1.6612E-08 -3.5388E-20  6.9452E-01
global system                  -1.1475E-18 -5.0467E-19 -1.5781E-01  1.5781E-01
                                2.9075E+00  7.2728E+00 -9.3427E-19  1.6542E+01

           1    8.00000E+00     6.9736E-01  2.6280E-07  2.8755E-20  6.9736E-01
global system                   5.1130E-19  4.3295E-19 -1.5869E-01  1.5869E-01
                                2.9607E+00  7.2724E+00 -2.0372E-19  1.6555E+01

           1    8.20000E+00     7.0011E-01  3.3570E-07  1.7066E-20  7.0011E-01
global system                   2.9986E-19  2.3573E-19 -1.5955E-01  1.5955E-01
                                3.0140E+00  7.2721E+00  1.4922E-18  1.6568E+01

           1    8.40000E+00     7.0280E-01  2.5243E-07 -4.2591E-20  7.0280E-01
global system                  -1.2829E-18  7.4442E-19 -1.6040E-01  1.6040E-01
                                3.0673E+00  7.2718E+00 -4.8259E-20  1.6582E+01

           1    8.60000E+00     7.0541E-01  3.1834E-07  8.0676E-20  7.0541E-01
global system                  -3.0068E-19 -3.0120E-18 -1.6123E-01  1.6123E-01
                                3.1206E+00  7.2714E+00  2.6336E-18  1.6595E+01

           1    8.80000E+00     7.0798E-01  2.2613E-07  4.2011E-20  7.0798E-01
global system                  -6.5759E-19  8.8023E-19 -1.6205E-01  1.6205E-01
                                3.1739E+00  7.2711E+00  1.8983E-18  1.6609E+01

           1    9.00000E+00     7.1048E-01  3.6586E-07 -5.6139E-20  7.1048E-01
global system                   6.5845E-19 -1.1175E-18 -1.6286E-01  1.6286E-01
                                3.2272E+00  7.2708E+00  1.8795E-19  1.6623E+01

           1    9.20000E+00     7.1292E-01 -8.5268E-08  1.5195E-20  7.1292E-01
global system                   8.7600E-19  2.5174E-19 -1.6365E-01  1.6365E-01
                                3.2806E+00  7.2705E+00  2.2539E-19  1.6638E+01

           1    9.40000E+00     7.1530E-01  2.6665E-07 -1.3904E-20  7.1530E-01
global system                  -3.5863E-19 -3.1100E-18 -1.6443E-01  1.6443E-01
                                3.3339E+00  7.2701E+00  1.2566E-18  1.6652E+01

           1    9.60000E+00     7.1761E-01  2.7704E-07 -1.9856E-20  7.1761E-01
global system                  -5.5675E-19  1.8142E-18 -1.6519E-01  1.6519E-01
                                3.3872E+00  7.2698E+00  9.6989E-19  1.6667E+01

           1    9.80000E+00     7.1987E-01  1.7548E-07  2.0125E-20  7.1987E-01
global system                   8.3864E-20 -1.0571E-18 -1.6594E-01  1.6594E-01
                                3.4406E+00  7.2695E+00 -8.5317E-19  1.6682E+01

           1    1.00000E+01     7.2207E-01  3.2363E-07  5.0047E-20  7.2207E-01
global system                  -5.3356E-19 -1.5465E-18 -1.6668E-01  1.6668E-01
                                3.4939E+00  7.2692E+00 -4.2805E-19  1.6697E+01

           1    1.02000E+01     7.2423E-01  1.3285E-07  2.9744E-20  7.2423E-01
global system                   2.5248E-19 -6.0029E-19 -1.6740E-01  1.6740E-01
                                3.5473E+00  7.2689E+00 -8.4819E-19  1.6712E+01

           1    1.04000E+01     7.2633E-01  3.3753E-07  6.6372E-21  7.2633E-01
global system                   1.0299E-18 -5.7609E-19 -1.6811E-01  1.6811E-01
                                3.6007E+00  7.2685E+00  1.2567E-18  1.6728E+01

           1    1.06000E+01     7.2838E-01 -5.5349E-08 -3.5721E-20  7.2838E-01
global system                  -7.8277E-19  6.6997E-19 -1.6881E-01  1.6881E-01
                                3.6541E+00  7.2682E+00 -8.1872E-20  1.6743E+01

           1    1.08000E+01     7.3038E-01  1.9464E-07  1.2655E-20  7.3038E-01
global system                   3.9018E-20 -5.6684E-19 -1.6950E-01  1.6950E-01
                                3.7075E+00  7.2679E+00  5.7485E-19  1.6759E+01

           1    1.10000E+01     7.3233E-01  2.4793E-07  6.8845E-20  7.3233E-01
global system                   1.0583E-18 -1.9987E-19 -1.7018E-01  1.7018E-01
                                3.7609E+00  7.2676E+00  2.0427E-18  1.6775E+01

           1    1.12000E+01     7.3425E-01  1.1739E-07  6.6354E-20  7.3425E-01
global system                  -5.2741E-19 -1.4428E-18 -1.7085E-01  1.7085E-01
                                3.8143E+00  7.2673E+00 -9.7764E-19  1.6792E+01

           1    1.14000E+01     7.3610E-01  3.0564E-07 -5.3144E-21  7.3610E-01
global system                   1.2605E-18  5.6930E-19 -1.7150E-01  1.7150E-01
                                3.8677E+00  7.2670E+00 -1.4595E-18  1.6808E+01

           1    1.16000E+01     7.3793E-01  1.1663E-07  1.1371E-19  7.3793E-01
global system                   6.3282E-19 -1.8319E-18 -1.7215E-01  1.7215E-01
                                3.9212E+00  7.2667E+00  2.7332E-18  1.6825E+01

           1    1.18000E+01     7.3970E-01  2.8084E-07  8.9790E-21  7.3970E-01
global system                   2.7148E-19 -5.6863E-19 -1.7279E-01  1.7279E-01
                                3.9747E+00  7.2664E+00  3.1903E-19  1.6842E+01

           1    1.20000E+01     7.4144E-01  4.3898E-08  2.8131E-20  7.4144E-01
global system                   1.8279E-18  3.0757E-20 -1.7341E-01  1.7341E-01
                                4.0281E+00  7.2661E+00  6.7461E-19  1.6859E+01

           1    1.22000E+01     7.4313E-01  1.0335E-07  6.8088E-20  7.4313E-01
global system                  -1.7306E-19 -8.7937E-19 -1.7403E-01  1.7403E-01
                                4.0816E+00  7.2658E+00 -9.5240E-19  1.6877E+01

           1    1.24000E+01     7.4478E-01  1.7186E-07 -2.8438E-21  7.4478E-01
global system                   1.5015E-18 -3.0371E-18 -1.7463E-01  1.7463E-01
                                4.1352E+00  7.2655E+00  3.0617E-18  1.6895E+01

           1    1.26000E+01     7.4639E-01  9.0060E-08 -2.0930E-20  7.4639E-01
global system                  -1.7311E-18 -3.4679E-19 -1.7523E-01  1.7523E-01
                                4.1887E+00  7.2652E+00 -3.6371E-19  1.6912E+01

           1    1.28000E+01     7.4795E-01  2.4238E-07  6.9391E-20  7.4795E-01
global system                   2.8324E-19 -1.1044E-18 -1.7582E-01  1.7582E-01
                                4.2422E+00  7.2649E+00 -5.0419E-19  1.6931E+01

           1    1.30000E+01     7.4950E-01  1.3487E-07  3.8295E-20  7.4950E-01
global system                   9.2782E-19 -3.3363E-18 -1.7639E-01  1.7639E-01
                                4.2958E+00  7.2646E+00  3.8564E-18  1.6949E+01

           1    1.32000E+01     7.5098E-01  2.0021E-07 -1.2251E-19  7.5098E-01
global system                  -7.5922E-19 -3.5468E-18 -1.7696E-01  1.7696E-01
                                4.3494E+00  7.2644E+00  2.9748E-18  1.6968E+01

           1    1.34000E+01     7.5245E-01  5.6323E-08  8.8893E-20  7.5245E-01
global system                  -8.5299E-19 -6.0744E-18 -1.7752E-01  1.7752E-01
                                4.4030E+00  7.2641E+00  1.0364E-17  1.6987E+01

           1    1.36000E+01     7.5387E-01  9.6533E-08  9.2669E-20  7.5387E-01
global system                   8.5766E-20 -9.8480E-18 -1.7807E-01  1.7807E-01
                                4.4566E+00  7.2638E+00  9.5155E-18  1.7006E+01

           1    1.38000E+01     7.5525E-01  2.0309E-08  2.6847E-19  7.5525E-01
global system                  -1.2937E-18 -2.3993E-17 -1.7861E-01  1.7861E-01
                                4.5103E+00  7.2635E+00  3.0509E-17  1.7026E+01

           1    1.40000E+01     7.5661E-01  1.1864E-07  7.0320E-19  7.5661E-01
global system                   5.8362E-19 -8.2229E-17 -1.7914E-01  1.7914E-01
                                4.5640E+00  7.2632E+00  1.1420E-16  1.7046E+01

           1    1.42000E+01     7.5792E-01  1.1708E-07  4.6274E-18  7.5792E-01
global system                   4.7147E-19 -3.9863E-16 -1.7966E-01  1.7966E-01
                                4.6176E+00  7.2630E+00  5.5642E-16  1.7066E+01

           1    1.44000E+01     7.5921E-01  1.1204E-07  3.8420E-17  7.5921E-01
global system                   1.5102E-17 -2.9894E-15 -1.8018E-01  1.8018E-01
                                4.6714E+00  7.2627E+00  4.1883E-15  1.7086E+01

           1    1.46000E+01     7.6045E-01  1.4695E-07  5.8495E-16  7.6045E-01
global system                   2.7624E-16 -4.0918E-14 -1.8069E-01  1.8069E-01
                                4.7251E+00  7.2624E+00  5.7896E-14  1.7107E+01

           1    1.48000E+01     7.6168E-01  9.9967E-08  2.2363E-14  7.6168E-01
global system                   1.0843E-14 -1.4154E-12 -1.8118E-01  1.8118E-01
                                4.7788E+00  7.2621E+00  2.0216E-12  1.7128E+01

           1    1.50000E+01     7.6286E-01  1.5563E-07  6.7685E-12  7.6286E-01
global system                   3.3467E-12 -3.8563E-10 -1.8167E-01  1.8167E-01
                                4.8326E+00  7.2619E+00  5.5654E-10  1.7149E+01

           1    1.52000E+01     7.6401E-01 -2.5752E-08  3.2474E-09  7.6401E-01
global system                   1.5865E-09 -1.6809E-07 -1.8215E-01  1.8215E-01
                                4.8864E+00  7.2616E+00  2.4482E-07  1.7170E+01

           1    1.54000E+01     7.6531E-01 -3.2572E-08 -1.4068E-07  7.6531E-01
global system                  -2.9354E-08 -3.9145E-06 -1.8269E-01  1.8269E-01
                                4.9407E+00  7.2613E+00  4.3102E-06  1.7195E+01

           1    1.56000E+01     7.6631E-01 -1.2534E-07 -6.6961E-09  7.6631E-01
global system                  -1.4154E-08 -1.1067E-05 -1.8313E-01  1.8313E-01
                                4.9942E+00  7.2610E+00  1.3991E-05  1.7216E+01

           1    1.58000E+01     7.6771E-01  3.2918E-07  3.0566E-08  7.6771E-01
global system                   3.6198E-08 -1.5247E-05 -1.8372E-01  1.8372E-01
                                5.0492E+00  7.2607E+00  2.0156E-05  1.7245E+01

           1    1.60000E+01     7.6878E-01  5.4885E-07 -5.2162E-08  7.6878E-01
global system                  -7.1257E-09 -1.4269E-05 -1.8419E-01  1.8419E-01
                                5.1030E+00  7.2604E+00  1.8202E-05  1.7269E+01

           1    1.62000E+01     7.6961E-01  1.1231E-07  1.0367E-07  7.6961E-01
global system                   9.1255E-09 -1.6643E-05 -1.8456E-01  1.8456E-01
                                5.1561E+00  7.2602E+00  2.1606E-05  1.7289E+01

           1    1.64000E+01     7.7074E-01  9.6422E-07 -1.9542E-08  7.7074E-01
global system                   4.4843E-08 -2.2570E-05 -1.8506E-01  1.8506E-01
                                5.2107E+00  7.2599E+00  2.9442E-05  1.7316E+01

           1    1.66000E+01     7.7153E-01  1.1110E-07  6.1610E-08  7.7153E-01
global system                  -4.2683E-08 -2.3829E-05 -1.8542E-01  1.8542E-01
                                5.2643E+00  7.2597E+00  2.9947E-05  1.7337E+01

           1    1.68000E+01     7.7232E-01 -8.6617E-08  1.2607E-07  7.7232E-01
global system                  -3.0908E-08 -2.6072E-05 -1.8579E-01  1.8579E-01
                                5.3175E+00  7.2594E+00  3.3051E-05  1.7359E+01

           1    1.70000E+01     7.7314E-01 -1.1079E-08  1.7004E-07  7.7314E-01
global system                  -3.3151E-08 -2.7101E-05 -1.8617E-01  1.8617E-01
                                5.3712E+00  7.2592E+00  3.4365E-05  1.7382E+01

           1    1.72000E+01     7.7395E-01  5.2190E-08  2.0257E-07  7.7395E-01
global system                  -3.4234E-08 -2.7464E-05 -1.8656E-01  1.8656E-01
                                5.4250E+00  7.2590E+00  3.4839E-05  1.7406E+01

           1    1.74000E+01     7.7475E-01 -8.1037E-08  2.2126E-07  7.7475E-01
global system                  -3.7579E-08 -2.7318E-05 -1.8694E-01  1.8694E-01
                                5.4790E+00  7.2587E+00  3.4616E-05  1.7431E+01

           1    1.76000E+01     7.7554E-01  9.7652E-08  2.3696E-07  7.7554E-01
global system                  -4.0158E-08 -2.6882E-05 -1.8733E-01  1.8733E-01
                                5.5330E+00  7.2585E+00  3.4017E-05  1.7457E+01

           1    1.78000E+01     7.7631E-01 -1.6537E-07  2.4300E-07  7.7631E-01
global system                  -4.4012E-08 -2.6279E-05 -1.8770E-01  1.8770E-01
                                5.5871E+00  7.2582E+00  3.3202E-05  1.7483E+01

           1    1.80000E+01     7.7705E-01  6.4985E-08  2.5355E-07  7.7705E-01
global system                  -4.6378E-08 -2.5528E-05 -1.8808E-01  1.8808E-01
                                5.6412E+00  7.2580E+00  3.2208E-05  1.7509E+01

           1    1.82000E+01     7.7777E-01 -2.1879E-07  2.5665E-07  7.7777E-01
global system                  -5.0417E-08 -2.4676E-05 -1.8844E-01  1.8844E-01
                                5.6954E+00  7.2577E+00  3.1075E-05  1.7536E+01

           1    1.84000E+01     7.7846E-01  3.1576E-08  2.6428E-07  7.7846E-01
global system                  -5.2732E-08 -2.3733E-05 -1.8880E-01  1.8880E-01
                                5.7497E+00  7.2575E+00  2.9835E-05  1.7564E+01

           1    1.86000E+01     7.7914E-01 -2.2544E-07  2.6475E-07  7.7914E-01
global system                  -5.7091E-08 -2.2710E-05 -1.8915E-01  1.8915E-01
                                5.8040E+00  7.2572E+00  2.8485E-05  1.7592E+01

           1    1.88000E+01     7.7978E-01 -2.2036E-08  2.6845E-07  7.7978E-01
global system                  -6.0013E-08 -2.1621E-05 -1.8950E-01  1.8950E-01
                                5.8583E+00  7.2570E+00  2.7058E-05  1.7621E+01

           1    1.90000E+01     7.8040E-01 -2.3473E-07  2.6862E-07  7.8040E-01
global system                  -6.4044E-08 -2.0505E-05 -1.8984E-01  1.8984E-01
                                5.9127E+00  7.2567E+00  2.5597E-05  1.7650E+01

           1    1.92000E+01     7.8099E-01 -7.4425E-08  2.7160E-07  7.8099E-01
global system                  -6.7042E-08 -1.9332E-05 -1.9017E-01  1.9017E-01
                                5.9672E+00  7.2565E+00  2.4070E-05  1.7680E+01

           1    1.94000E+01     7.8157E-01 -2.5175E-07  2.7190E-07  7.8157E-01
global system                  -7.0836E-08 -1.8147E-05 -1.9049E-01  1.9049E-01
                                6.0217E+00  7.2563E+00  2.2528E-05  1.7710E+01

           1    1.96000E+01     7.8211E-01 -8.8615E-08  2.7420E-07  7.8211E-01
global system                  -7.3692E-08 -1.6922E-05 -1.9081E-01  1.9081E-01
                                6.0762E+00  7.2560E+00  2.0942E-05  1.7741E+01

           1    1.98000E+01     7.8263E-01 -3.0735E-07  2.7239E-07  7.8263E-01
global system                  -7.7885E-08 -1.5674E-05 -1.9112E-01  1.9112E-01
                                6.1309E+00  7.2558E+00  1.9323E-05  1.7772E+01

           1    2.00000E+01     7.8313E-01 -1.3352E-07  2.7558E-07  7.8313E-01
global system                  -8.0342E-08 -1.4460E-05 -1.9143E-01  1.9143E-01
                                6.1855E+00  7.2556E+00  1.7755E-05  1.7804E+01

